<?xml version="1.0" encoding="UTF-8"?>
	<routes xmlns:xsi="http://www.w3.org/2001/XMLSchema-instance" xsi:noNamespaceSchemaLocation="Data/GridNetwork/GridNetwork.rou.xml">
	
		<vType id = "passenger" accel = "2.600000"	decel = "4.500000" minGap = "2.500000" sigma = "0.500000" color = "1,1,0" length = "5.000000" maxSpeed = "16.670000" speedFactor = "1.000000" speedDev = "0.100000" guiShape = "passenger"		/>
		<vType id = "emergency" accel = "3.000000"	decel = "5.500000" minGap = "2.500000" sigma = "0.100000" color = "1,0,0" length = "7.000000" maxSpeed = "30.000000" speedFactor = "1.000000" speedDev = "0.100000" guiShape = "passenger/van"		/>
		<vType id = "transport" accel = "2.600000"	decel = "4.500000" minGap = "3.000000" sigma = "0.500000" color = "0,0,1" length = "10.000000" maxSpeed = "20.000000" speedFactor = "1.000000" speedDev = "0.100000" guiShape = "transport"		/>
		<vType id = "bus" accel = "2.600000"	decel = "4.500000" minGap = "3.000000" sigma = "0.500000" color = "0,1,0" length = "10.000000" maxSpeed = "20.000000" speedFactor = "1.000000" speedDev = "0.100000" guiShape = "bus"		/>
		<route	id = "rou_0" edges ="edg_1_5_W edg_1_4_W edg_1_3_E edg_1_4_W edg_1_3_E edg_1_4_S edg_2_4_S edg_3_4_N edg_2_4_E "	/>
		<route	id = "rou_1" edges ="edg_3_0_E edg_3_1_W "	/>
		<route	id = "rou_2" edges ="edg_3_5_W edg_3_4_N edg_2_4_W edg_2_3_E edg_2_4_N edg_1_4_E "	/>
		<route	id = "rou_3" edges ="edg_5_4_N edg_4_4_W edg_4_3_S "	/>
		<route	id = "rou_4" edges ="edg_5_2_N edg_4_2_S "	/>
		<route	id = "rou_5" edges ="edg_5_1_N edg_4_1_E edg_4_2_E edg_4_3_N edg_3_3_W edg_3_2_E edg_3_3_W edg_3_2_S edg_4_2_W edg_4_1_W "	/>
		<route	id = "rou_6" edges ="edg_5_1_N edg_4_1_S "	/>
		<route	id = "rou_7" edges ="edg_1_5_W edg_1_4_S edg_2_4_S edg_3_4_S edg_4_4_E "	/>
		<route	id = "rou_8" edges ="edg_1_0_E edg_1_1_W "	/>
		<route	id = "rou_9" edges ="edg_0_3_S edg_1_3_E edg_1_4_N "	/>
		<route	id = "rou_10" edges ="edg_5_2_N edg_4_2_W edg_4_1_E edg_4_2_S "	/>
		<route	id = "rou_11" edges ="edg_3_5_W edg_3_4_E "	/>
		<route	id = "rou_12" edges ="edg_1_5_W edg_1_4_S edg_2_4_W edg_2_3_N edg_1_3_W edg_1_2_S edg_2_2_N edg_1_2_W edg_1_1_E edg_1_2_E edg_1_3_S edg_2_3_S edg_3_3_W edg_3_2_S edg_4_2_W edg_4_1_N edg_3_1_E edg_3_2_W edg_3_1_E edg_3_2_E edg_3_3_N edg_2_3_N edg_1_3_N "	/>
		<route	id = "rou_13" edges ="edg_1_0_E edg_1_1_E edg_1_2_S edg_2_2_E edg_2_3_W edg_2_2_E edg_2_3_E edg_2_4_N edg_1_4_E "	/>
		<route	id = "rou_14" edges ="edg_3_5_W edg_3_4_S edg_4_4_N edg_3_4_W edg_3_3_N edg_2_3_N edg_1_3_N "	/>
		<route	id = "rou_15" edges ="edg_0_4_S edg_1_4_W edg_1_3_W edg_1_2_W edg_1_1_E edg_1_2_E edg_1_3_S edg_2_3_S edg_3_3_S edg_4_3_W edg_4_2_W edg_4_1_N edg_3_1_N edg_2_1_S edg_3_1_E edg_3_2_E edg_3_3_E edg_3_4_S edg_4_4_E "	/>
		<route	id = "rou_16" edges ="edg_4_5_W edg_4_4_S "	/>
		<route	id = "rou_17" edges ="edg_0_1_S edg_1_1_E edg_1_2_E edg_1_3_W edg_1_2_W edg_1_1_S edg_2_1_S edg_3_1_N edg_2_1_E edg_2_2_E edg_2_3_W edg_2_2_W edg_2_1_E edg_2_2_E edg_2_3_E edg_2_4_W edg_2_3_S edg_3_3_S edg_4_3_W edg_4_2_E edg_4_3_W edg_4_2_W edg_4_1_E edg_4_2_E edg_4_3_S "	/>
		<route	id = "rou_18" edges ="edg_0_3_S edg_1_3_E edg_1_4_W edg_1_3_S edg_2_3_W edg_2_2_N edg_1_2_W edg_1_1_E edg_1_2_S edg_2_2_W edg_2_1_N edg_1_1_S edg_2_1_E edg_2_2_S edg_3_2_S edg_4_2_E edg_4_3_W edg_4_2_E edg_4_3_E edg_4_4_E "	/>
		<route	id = "rou_19" edges ="edg_2_5_W edg_2_4_E "	/>
		<route	id = "rou_20" edges ="edg_5_2_N edg_4_2_N edg_3_2_W edg_3_1_E edg_3_2_E edg_3_3_W edg_3_2_E edg_3_3_E edg_3_4_W edg_3_3_N edg_2_3_S edg_3_3_N edg_2_3_N edg_1_3_E edg_1_4_W edg_1_3_S edg_2_3_E edg_2_4_N edg_1_4_N "	/>
		<route	id = "rou_21" edges ="edg_0_2_S edg_1_2_S edg_2_2_W edg_2_1_S edg_3_1_S edg_4_1_W "	/>
		<route	id = "rou_22" edges ="edg_0_3_S edg_1_3_W edg_1_2_W edg_1_1_E edg_1_2_N "	/>
		<route	id = "rou_23" edges ="edg_0_2_S edg_1_2_E edg_1_3_E edg_1_4_N "	/>
		<route	id = "rou_24" edges ="edg_3_0_E edg_3_1_S edg_4_1_W "	/>
		<route	id = "rou_25" edges ="edg_5_4_N edg_4_4_E "	/>
		<route	id = "rou_26" edges ="edg_4_5_W edg_4_4_S "	/>
		<route	id = "rou_27" edges ="edg_3_0_E edg_3_1_N edg_2_1_W "	/>
		<route	id = "rou_28" edges ="edg_4_5_W edg_4_4_N edg_3_4_W edg_3_3_E edg_3_4_N edg_2_4_N edg_1_4_N "	/>
		<route	id = "rou_29" edges ="edg_2_0_E edg_2_1_N edg_1_1_S edg_2_1_W "	/>
		<route	id = "rou_30" edges ="edg_3_5_W edg_3_4_S edg_4_4_W edg_4_3_W edg_4_2_E edg_4_3_W edg_4_2_W edg_4_1_N edg_3_1_S edg_4_1_N edg_3_1_N edg_2_1_N edg_1_1_E edg_1_2_E edg_1_3_E edg_1_4_N "	/>
		<route	id = "rou_31" edges ="edg_0_1_S edg_1_1_W "	/>
		<route	id = "rou_32" edges ="edg_4_0_E edg_4_1_W "	/>
		<route	id = "rou_33" edges ="edg_0_1_S edg_1_1_E edg_1_2_S edg_2_2_W edg_2_1_E edg_2_2_W edg_2_1_S edg_3_1_S edg_4_1_S "	/>
		<route	id = "rou_34" edges ="edg_0_2_S edg_1_2_W edg_1_1_W "	/>
		<route	id = "rou_35" edges ="edg_0_1_S edg_1_1_N "	/>
		<route	id = "rou_36" edges ="edg_3_5_W edg_3_4_E "	/>
		<route	id = "rou_37" edges ="edg_5_2_N edg_4_2_E edg_4_3_S "	/>
		<route	id = "rou_38" edges ="edg_5_4_N edg_4_4_W edg_4_3_S "	/>
		<route	id = "rou_39" edges ="edg_1_5_W edg_1_4_N "	/>
		<route	id = "rou_40" edges ="edg_2_5_W edg_2_4_E "	/>
		<route	id = "rou_41" edges ="edg_5_2_N edg_4_2_W edg_4_1_S "	/>
		<route	id = "rou_42" edges ="edg_0_3_S edg_1_3_S edg_2_3_S edg_3_3_S edg_4_3_N edg_3_3_W edg_3_2_W edg_3_1_N edg_2_1_S edg_3_1_E edg_3_2_N edg_2_2_N edg_1_2_S edg_2_2_S edg_3_2_W edg_3_1_N edg_2_1_N edg_1_1_S edg_2_1_W "	/>
		<route	id = "rou_43" edges ="edg_5_3_N edg_4_3_S "	/>
		<route	id = "rou_44" edges ="edg_0_1_S edg_1_1_E edg_1_2_S edg_2_2_W edg_2_1_N edg_1_1_W "	/>
		<route	id = "rou_45" edges ="edg_5_3_N edg_4_3_E edg_4_4_W edg_4_3_W edg_4_2_N edg_3_2_E edg_3_3_N edg_2_3_S edg_3_3_E edg_3_4_S edg_4_4_S "	/>
		<route	id = "rou_46" edges ="edg_5_2_N edg_4_2_N edg_3_2_E edg_3_3_E edg_3_4_N edg_2_4_E "	/>
		<route	id = "rou_47" edges ="edg_1_0_E edg_1_1_N "	/>
		<route	id = "rou_48" edges ="edg_5_1_N edg_4_1_E edg_4_2_S "	/>
		<route	id = "rou_49" edges ="edg_2_5_W edg_2_4_W edg_2_3_S edg_3_3_N edg_2_3_W edg_2_2_S edg_3_2_S edg_4_2_S "	/>
		<route	id = "rou_50" edges ="edg_5_4_N edg_4_4_E "	/>
		<route	id = "rou_51" edges ="edg_4_5_W edg_4_4_E "	/>
		<route	id = "rou_52" edges ="edg_2_5_W edg_2_4_S edg_3_4_N edg_2_4_W edg_2_3_E edg_2_4_W edg_2_3_N edg_1_3_E edg_1_4_W edg_1_3_N "	/>
		<route	id = "rou_53" edges ="edg_3_0_E edg_3_1_N edg_2_1_S edg_3_1_W "	/>
		<route	id = "rou_54" edges ="edg_2_5_W edg_2_4_E "	/>
		<route	id = "rou_55" edges ="edg_4_5_W edg_4_4_S "	/>
		<route	id = "rou_56" edges ="edg_3_5_W edg_3_4_W edg_3_3_S edg_4_3_N edg_3_3_N edg_2_3_E edg_2_4_E "	/>
		<route	id = "rou_57" edges ="edg_2_5_W edg_2_4_W edg_2_3_E edg_2_4_W edg_2_3_N edg_1_3_N "	/>
		<route	id = "rou_58" edges ="edg_5_3_N edg_4_3_N edg_3_3_W edg_3_2_W edg_3_1_N edg_2_1_E edg_2_2_S edg_3_2_S edg_4_2_S "	/>
		<route	id = "rou_59" edges ="edg_1_5_W edg_1_4_S edg_2_4_E "	/>
		<route	id = "rou_60" edges ="edg_3_5_W edg_3_4_W edg_3_3_S edg_4_3_W edg_4_2_S "	/>
		<route	id = "rou_61" edges ="edg_4_5_W edg_4_4_E "	/>
		<route	id = "rou_62" edges ="edg_1_0_E edg_1_1_S edg_2_1_W "	/>
		<route	id = "rou_63" edges ="edg_1_0_E edg_1_1_S edg_2_1_S edg_3_1_S edg_4_1_W "	/>
		<route	id = "rou_64" edges ="edg_5_2_N edg_4_2_N edg_3_2_E edg_3_3_N edg_2_3_E edg_2_4_E "	/>
		<route	id = "rou_65" edges ="edg_4_5_W edg_4_4_W edg_4_3_S "	/>
		<route	id = "rou_66" edges ="edg_4_0_E edg_4_1_N edg_3_1_W "	/>
		<route	id = "rou_67" edges ="edg_5_2_N edg_4_2_S "	/>
		<route	id = "rou_68" edges ="edg_5_4_N edg_4_4_W edg_4_3_E edg_4_4_E "	/>
		<route	id = "rou_69" edges ="edg_0_1_S edg_1_1_S edg_2_1_S edg_3_1_S edg_4_1_S "	/>
		<route	id = "rou_70" edges ="edg_5_4_N edg_4_4_N edg_3_4_N edg_2_4_W edg_2_3_N edg_1_3_W edg_1_2_N "	/>
		<route	id = "rou_71" edges ="edg_4_5_W edg_4_4_E "	/>
		<route	id = "rou_72" edges ="edg_0_2_S edg_1_2_N "	/>
		<route	id = "rou_73" edges ="edg_0_4_S edg_1_4_S edg_2_4_E "	/>
		<route	id = "rou_74" edges ="edg_3_5_W edg_3_4_E "	/>
		<route	id = "rou_75" edges ="edg_5_4_N edg_4_4_W edg_4_3_W edg_4_2_S "	/>
		<route	id = "rou_76" edges ="edg_0_1_S edg_1_1_E edg_1_2_W edg_1_1_E edg_1_2_W edg_1_1_S edg_2_1_W "	/>
		<route	id = "rou_77" edges ="edg_5_3_N edg_4_3_E edg_4_4_W edg_4_3_E edg_4_4_N edg_3_4_W edg_3_3_W edg_3_2_W edg_3_1_N edg_2_1_W "	/>
		<route	id = "rou_78" edges ="edg_5_1_N edg_4_1_W "	/>
		<route	id = "rou_79" edges ="edg_5_1_N edg_4_1_S "	/>
		<route	id = "rou_80" edges ="edg_2_5_W edg_2_4_E "	/>
		<route	id = "rou_81" edges ="edg_4_5_W edg_4_4_N edg_3_4_S edg_4_4_W edg_4_3_S "	/>
		<route	id = "rou_82" edges ="edg_5_3_N edg_4_3_W edg_4_2_S "	/>
		<route	id = "rou_83" edges ="edg_1_0_E edg_1_1_W "	/>
		<route	id = "rou_84" edges ="edg_5_3_N edg_4_3_N edg_3_3_E edg_3_4_N edg_2_4_W edg_2_3_S edg_3_3_W edg_3_2_E edg_3_3_W edg_3_2_S edg_4_2_N edg_3_2_N edg_2_2_W edg_2_1_S edg_3_1_S edg_4_1_S "	/>
		<route	id = "rou_85" edges ="edg_2_0_E edg_2_1_N edg_1_1_S edg_2_1_N edg_1_1_W "	/>
		<route	id = "rou_86" edges ="edg_0_3_S edg_1_3_N "	/>
		<route	id = "rou_87" edges ="edg_4_5_W edg_4_4_W edg_4_3_E edg_4_4_N edg_3_4_S edg_4_4_N edg_3_4_E "	/>
		<route	id = "rou_88" edges ="edg_3_0_E edg_3_1_W "	/>
		<route	id = "rou_89" edges ="edg_5_1_N edg_4_1_W "	/>
		<route	id = "rou_90" edges ="edg_0_4_S edg_1_4_W edg_1_3_N "	/>
		<route	id = "rou_91" edges ="edg_3_5_W edg_3_4_N edg_2_4_N edg_1_4_W edg_1_3_E edg_1_4_E "	/>
		<route	id = "rou_92" edges ="edg_0_1_S edg_1_1_E edg_1_2_N "	/>
		<route	id = "rou_93" edges ="edg_5_1_N edg_4_1_E edg_4_2_S "	/>
		<route	id = "rou_94" edges ="edg_4_0_E edg_4_1_W "	/>
		<route	id = "rou_95" edges ="edg_4_0_E edg_4_1_S "	/>
		<route	id = "rou_96" edges ="edg_4_5_W edg_4_4_E "	/>
		<route	id = "rou_97" edges ="edg_4_0_E edg_4_1_E edg_4_2_N edg_3_2_S edg_4_2_W edg_4_1_S "	/>
		<route	id = "rou_98" edges ="edg_3_0_E edg_3_1_E edg_3_2_N edg_2_2_N edg_1_2_S edg_2_2_S edg_3_2_W edg_3_1_N edg_2_1_S edg_3_1_E edg_3_2_W edg_3_1_E edg_3_2_E edg_3_3_S edg_4_3_S "	/>
		<route	id = "rou_99" edges ="edg_4_0_E edg_4_1_S "	/>
		<route	id = "rou_100" edges ="edg_2_0_E edg_2_1_W "	/>
		<route	id = "rou_101" edges ="edg_0_1_S edg_1_1_W "	/>
		<route	id = "rou_102" edges ="edg_4_5_W edg_4_4_W edg_4_3_E edg_4_4_S "	/>
		<route	id = "rou_103" edges ="edg_4_0_E edg_4_1_W "	/>
		<route	id = "rou_104" edges ="edg_0_2_S edg_1_2_N "	/>
		<route	id = "rou_105" edges ="edg_0_1_S edg_1_1_N "	/>
		<route	id = "rou_106" edges ="edg_5_1_N edg_4_1_E edg_4_2_W edg_4_1_E edg_4_2_S "	/>
		<route	id = "rou_107" edges ="edg_4_0_E edg_4_1_S "	/>
		<route	id = "rou_108" edges ="edg_5_2_N edg_4_2_W edg_4_1_W "	/>
		<route	id = "rou_109" edges ="edg_3_0_E edg_3_1_S edg_4_1_W "	/>
		<route	id = "rou_110" edges ="edg_0_4_S edg_1_4_S edg_2_4_S edg_3_4_N edg_2_4_W edg_2_3_N edg_1_3_N "	/>
		<route	id = "rou_111" edges ="edg_4_0_E edg_4_1_S "	/>
		<route	id = "rou_112" edges ="edg_2_5_W edg_2_4_S edg_3_4_N edg_2_4_N edg_1_4_N "	/>
		<route	id = "rou_113" edges ="edg_3_5_W edg_3_4_S edg_4_4_N edg_3_4_S edg_4_4_W edg_4_3_E edg_4_4_N edg_3_4_W edg_3_3_N edg_2_3_S edg_3_3_N edg_2_3_E edg_2_4_S edg_3_4_W edg_3_3_N edg_2_3_W edg_2_2_N edg_1_2_S edg_2_2_W edg_2_1_N edg_1_1_W "	/>
		<route	id = "rou_114" edges ="edg_0_2_S edg_1_2_W edg_1_1_N "	/>
		<route	id = "rou_115" edges ="edg_5_2_N edg_4_2_S "	/>
		<route	id = "rou_116" edges ="edg_0_2_S edg_1_2_E edg_1_3_W edg_1_2_N "	/>
		<route	id = "rou_117" edges ="edg_4_0_E edg_4_1_E edg_4_2_S "	/>
		<route	id = "rou_118" edges ="edg_4_0_E edg_4_1_E edg_4_2_W edg_4_1_W "	/>
		<route	id = "rou_119" edges ="edg_5_2_N edg_4_2_W edg_4_1_N edg_3_1_N edg_2_1_W "	/>
		<route	id = "rou_120" edges ="edg_3_0_E edg_3_1_E edg_3_2_E edg_3_3_E edg_3_4_W edg_3_3_S edg_4_3_N edg_3_3_W edg_3_2_E edg_3_3_W edg_3_2_N edg_2_2_N edg_1_2_E edg_1_3_E edg_1_4_E "	/>
		<route	id = "rou_121" edges ="edg_5_3_N edg_4_3_S "	/>
		<route	id = "rou_122" edges ="edg_1_0_E edg_1_1_E edg_1_2_W edg_1_1_W "	/>
		<route	id = "rou_123" edges ="edg_3_0_E edg_3_1_W "	/>
		<route	id = "rou_124" edges ="edg_3_0_E edg_3_1_W "	/>
		<route	id = "rou_125" edges ="edg_0_1_S edg_1_1_E edg_1_2_N "	/>
		<route	id = "rou_126" edges ="edg_5_1_N edg_4_1_W "	/>
		<route	id = "rou_127" edges ="edg_3_5_W edg_3_4_N edg_2_4_N edg_1_4_E "	/>
		<route	id = "rou_128" edges ="edg_3_0_E edg_3_1_W "	/>
		<route	id = "rou_129" edges ="edg_0_4_S edg_1_4_S edg_2_4_W edg_2_3_W edg_2_2_N edg_1_2_S edg_2_2_S edg_3_2_W edg_3_1_W "	/>
		<route	id = "rou_130" edges ="edg_0_4_S edg_1_4_S edg_2_4_N edg_1_4_N "	/>
		<route	id = "rou_131" edges ="edg_4_0_E edg_4_1_N edg_3_1_W "	/>
		<route	id = "rou_132" edges ="edg_4_0_E edg_4_1_E edg_4_2_E edg_4_3_N edg_3_3_S edg_4_3_N edg_3_3_S edg_4_3_W edg_4_2_S "	/>
		<route	id = "rou_133" edges ="edg_0_4_S edg_1_4_E "	/>
		<route	id = "rou_134" edges ="edg_0_1_S edg_1_1_N "	/>
		<route	id = "rou_135" edges ="edg_5_1_N edg_4_1_W "	/>
		<route	id = "rou_136" edges ="edg_2_5_W edg_2_4_W edg_2_3_N edg_1_3_N "	/>
		<route	id = "rou_137" edges ="edg_5_1_N edg_4_1_N edg_3_1_W "	/>
		<route	id = "rou_138" edges ="edg_4_5_W edg_4_4_S "	/>
		<route	id = "rou_139" edges ="edg_3_0_E edg_3_1_E edg_3_2_W edg_3_1_W "	/>
		<route	id = "rou_140" edges ="edg_2_5_W edg_2_4_N edg_1_4_N "	/>
		<route	id = "rou_141" edges ="edg_1_0_E edg_1_1_N "	/>
		<route	id = "rou_142" edges ="edg_3_5_W edg_3_4_W edg_3_3_N edg_2_3_S edg_3_3_S edg_4_3_S "	/>
		<route	id = "rou_143" edges ="edg_4_0_E edg_4_1_E edg_4_2_W edg_4_1_S "	/>
		<route	id = "rou_144" edges ="edg_5_1_N edg_4_1_N edg_3_1_E edg_3_2_W edg_3_1_W "	/>
		<route	id = "rou_145" edges ="edg_5_2_N edg_4_2_N edg_3_2_S edg_4_2_E edg_4_3_E edg_4_4_E "	/>
		<route	id = "rou_146" edges ="edg_4_5_W edg_4_4_S "	/>
		<route	id = "rou_147" edges ="edg_5_4_N edg_4_4_E "	/>
		<route	id = "rou_148" edges ="edg_4_5_W edg_4_4_S "	/>
		<route	id = "rou_149" edges ="edg_3_5_W edg_3_4_N edg_2_4_S edg_3_4_S edg_4_4_E "	/>
		<route	id = "rou_150" edges ="edg_0_4_S edg_1_4_S edg_2_4_W edg_2_3_N edg_1_3_W edg_1_2_W edg_1_1_E edg_1_2_S edg_2_2_N edg_1_2_W edg_1_1_S edg_2_1_S edg_3_1_N edg_2_1_N edg_1_1_W "	/>
		<route	id = "rou_151" edges ="edg_5_2_N edg_4_2_E edg_4_3_N edg_3_3_E edg_3_4_S edg_4_4_E "	/>
		<route	id = "rou_152" edges ="edg_2_5_W edg_2_4_N edg_1_4_N "	/>
		<route	id = "rou_153" edges ="edg_5_1_N edg_4_1_E edg_4_2_N edg_3_2_N edg_2_2_W edg_2_1_S edg_3_1_S edg_4_1_W "	/>
		<route	id = "rou_154" edges ="edg_0_2_S edg_1_2_W edg_1_1_S edg_2_1_S edg_3_1_N edg_2_1_N edg_1_1_W "	/>
		<route	id = "rou_155" edges ="edg_5_1_N edg_4_1_E edg_4_2_W edg_4_1_S "	/>
		<route	id = "rou_156" edges ="edg_5_4_N edg_4_4_E "	/>
		<route	id = "rou_157" edges ="edg_5_2_N edg_4_2_S "	/>
		<route	id = "rou_158" edges ="edg_4_0_E edg_4_1_W "	/>
		<route	id = "rou_159" edges ="edg_4_0_E edg_4_1_N edg_3_1_N edg_2_1_E edg_2_2_W edg_2_1_N edg_1_1_N "	/>
		<route	id = "rou_160" edges ="edg_5_3_N edg_4_3_E edg_4_4_S "	/>
		<route	id = "rou_161" edges ="edg_3_0_E edg_3_1_E edg_3_2_W edg_3_1_S edg_4_1_S "	/>
		<route	id = "rou_162" edges ="edg_0_4_S edg_1_4_N "	/>
		<route	id = "rou_163" edges ="edg_1_5_W edg_1_4_N "	/>
		<route	id = "rou_164" edges ="edg_5_4_N edg_4_4_E "	/>
		<route	id = "rou_165" edges ="edg_1_5_W edg_1_4_E "	/>
		<route	id = "rou_166" edges ="edg_2_5_W edg_2_4_N edg_1_4_E "	/>
		<route	id = "rou_167" edges ="edg_5_4_N edg_4_4_W edg_4_3_N edg_3_3_N edg_2_3_N edg_1_3_E edg_1_4_E "	/>
		<route	id = "rou_168" edges ="edg_5_3_N edg_4_3_N edg_3_3_N edg_2_3_N edg_1_3_S edg_2_3_N edg_1_3_S edg_2_3_S edg_3_3_W edg_3_2_S edg_4_2_S "	/>
		<route	id = "rou_169" edges ="edg_4_5_W edg_4_4_E "	/>
		<route	id = "rou_170" edges ="edg_5_3_N edg_4_3_E edg_4_4_N edg_3_4_N edg_2_4_S edg_3_4_S edg_4_4_W edg_4_3_W edg_4_2_E edg_4_3_E edg_4_4_E "	/>
		<route	id = "rou_171" edges ="edg_5_4_N edg_4_4_S "	/>
		<route	id = "rou_172" edges ="edg_2_0_E edg_2_1_W "	/>
		<route	id = "rou_173" edges ="edg_1_0_E edg_1_1_S edg_2_1_N edg_1_1_W "	/>
		<route	id = "rou_174" edges ="edg_5_2_N edg_4_2_N edg_3_2_W edg_3_1_E edg_3_2_W edg_3_1_W "	/>
		<route	id = "rou_175" edges ="edg_4_0_E edg_4_1_W "	/>
		<route	id = "rou_176" edges ="edg_4_5_W edg_4_4_E "	/>
		<route	id = "rou_177" edges ="edg_1_5_W edg_1_4_W edg_1_3_E edg_1_4_N "	/>
		<route	id = "rou_178" edges ="edg_5_4_N edg_4_4_N edg_3_4_W edg_3_3_S edg_4_3_S "	/>
		<route	id = "rou_179" edges ="edg_5_3_N edg_4_3_E edg_4_4_E "	/>
		<route	id = "rou_180" edges ="edg_4_0_E edg_4_1_W "	/>
		<route	id = "rou_181" edges ="edg_2_5_W edg_2_4_E "	/>
		<route	id = "rou_182" edges ="edg_5_4_N edg_4_4_E "	/>
		<route	id = "rou_183" edges ="edg_5_4_N edg_4_4_S "	/>
		<route	id = "rou_184" edges ="edg_5_1_N edg_4_1_S "	/>
		<route	id = "rou_185" edges ="edg_1_5_W edg_1_4_N "	/>
		<route	id = "rou_186" edges ="edg_4_0_E edg_4_1_S "	/>
		<route	id = "rou_187" edges ="edg_2_0_E edg_2_1_W "	/>
		<route	id = "rou_188" edges ="edg_3_5_W edg_3_4_S edg_4_4_E "	/>
		<route	id = "rou_189" edges ="edg_0_2_S edg_1_2_S edg_2_2_N edg_1_2_W edg_1_1_S edg_2_1_N edg_1_1_W "	/>
		<route	id = "rou_190" edges ="edg_0_1_S edg_1_1_S edg_2_1_W "	/>
		<route	id = "rou_191" edges ="edg_5_4_N edg_4_4_E "	/>
		<route	id = "rou_192" edges ="edg_2_0_E edg_2_1_N edg_1_1_N "	/>
		<route	id = "rou_193" edges ="edg_5_3_N edg_4_3_N edg_3_3_W edg_3_2_W edg_3_1_E edg_3_2_N edg_2_2_S edg_3_2_E edg_3_3_N edg_2_3_N edg_1_3_S edg_2_3_E edg_2_4_W edg_2_3_W edg_2_2_N edg_1_2_W edg_1_1_W "	/>
		<route	id = "rou_194" edges ="edg_0_4_S edg_1_4_S edg_2_4_W edg_2_3_E edg_2_4_W edg_2_3_W edg_2_2_W edg_2_1_W "	/>
		<route	id = "rou_195" edges ="edg_5_3_N edg_4_3_W edg_4_2_S "	/>
		<route	id = "rou_196" edges ="edg_3_0_E edg_3_1_S edg_4_1_N edg_3_1_S edg_4_1_S "	/>
		<route	id = "rou_197" edges ="edg_5_4_N edg_4_4_W edg_4_3_S "	/>
		<route	id = "rou_198" edges ="edg_1_0_E edg_1_1_W "	/>
		<route	id = "rou_199" edges ="edg_4_0_E edg_4_1_N edg_3_1_N edg_2_1_S edg_3_1_S edg_4_1_W "	/>
		<route	id = "rou_200" edges ="edg_0_2_S edg_1_2_W edg_1_1_N "	/>
		<route	id = "rou_201" edges ="edg_3_0_E edg_3_1_W "	/>
		<route	id = "rou_202" edges ="edg_0_2_S edg_1_2_S edg_2_2_N edg_1_2_W edg_1_1_W "	/>
		<route	id = "rou_203" edges ="edg_5_4_N edg_4_4_N edg_3_4_W edg_3_3_E edg_3_4_S edg_4_4_E "	/>
		<route	id = "rou_204" edges ="edg_3_5_W edg_3_4_W edg_3_3_E edg_3_4_W edg_3_3_S edg_4_3_E edg_4_4_S "	/>
		<route	id = "rou_205" edges ="edg_2_0_E edg_2_1_N edg_1_1_E edg_1_2_N "	/>
		<route	id = "rou_206" edges ="edg_4_5_W edg_4_4_N edg_3_4_N edg_2_4_E "	/>
		<route	id = "rou_207" edges ="edg_3_0_E edg_3_1_W "	/>
		<route	id = "rou_208" edges ="edg_2_5_W edg_2_4_E "	/>
		<route	id = "rou_209" edges ="edg_5_4_N edg_4_4_N edg_3_4_N edg_2_4_N edg_1_4_E "	/>
		<route	id = "rou_210" edges ="edg_4_5_W edg_4_4_N edg_3_4_S edg_4_4_W edg_4_3_W edg_4_2_W edg_4_1_S "	/>
		<route	id = "rou_211" edges ="edg_5_3_N edg_4_3_S "	/>
		<route	id = "rou_212" edges ="edg_5_3_N edg_4_3_W edg_4_2_E edg_4_3_W edg_4_2_W edg_4_1_W "	/>
		<route	id = "rou_213" edges ="edg_0_1_S edg_1_1_W "	/>
		<route	id = "rou_214" edges ="edg_2_0_E edg_2_1_S edg_3_1_E edg_3_2_E edg_3_3_E edg_3_4_W edg_3_3_S edg_4_3_N edg_3_3_N edg_2_3_N edg_1_3_W edg_1_2_E edg_1_3_W edg_1_2_S edg_2_2_S edg_3_2_W edg_3_1_W "	/>
		<route	id = "rou_215" edges ="edg_0_2_S edg_1_2_E edg_1_3_E edg_1_4_W edg_1_3_N "	/>
		<route	id = "rou_216" edges ="edg_5_2_N edg_4_2_S "	/>
		<route	id = "rou_217" edges ="edg_0_2_S edg_1_2_E edg_1_3_N "	/>
		<route	id = "rou_218" edges ="edg_1_0_E edg_1_1_E edg_1_2_S edg_2_2_E edg_2_3_E edg_2_4_S edg_3_4_N edg_2_4_E "	/>
		<route	id = "rou_219" edges ="edg_0_2_S edg_1_2_N "	/>
		<route	id = "rou_220" edges ="edg_3_0_E edg_3_1_E edg_3_2_S edg_4_2_W edg_4_1_W "	/>
		<route	id = "rou_221" edges ="edg_0_1_S edg_1_1_S edg_2_1_N edg_1_1_E edg_1_2_N "	/>
		<route	id = "rou_222" edges ="edg_4_5_W edg_4_4_E "	/>
		<route	id = "rou_223" edges ="edg_0_2_S edg_1_2_N "	/>
		<route	id = "rou_224" edges ="edg_4_5_W edg_4_4_S "	/>
		<route	id = "rou_225" edges ="edg_5_1_N edg_4_1_N edg_3_1_N edg_2_1_N edg_1_1_N "	/>
		<route	id = "rou_226" edges ="edg_0_3_S edg_1_3_E edg_1_4_E "	/>
		<route	id = "rou_227" edges ="edg_0_3_S edg_1_3_E edg_1_4_E "	/>
		<route	id = "rou_228" edges ="edg_0_2_S edg_1_2_N "	/>
		<route	id = "rou_229" edges ="edg_0_1_S edg_1_1_S edg_2_1_E edg_2_2_E edg_2_3_W edg_2_2_N edg_1_2_E edg_1_3_E edg_1_4_E "	/>
		<route	id = "rou_230" edges ="edg_0_2_S edg_1_2_W edg_1_1_W "	/>
		<route	id = "rou_231" edges ="edg_5_1_N edg_4_1_S "	/>
		<route	id = "rou_232" edges ="edg_5_1_N edg_4_1_N edg_3_1_N edg_2_1_W "	/>
		<route	id = "rou_233" edges ="edg_5_4_N edg_4_4_N edg_3_4_N edg_2_4_N edg_1_4_S edg_2_4_S edg_3_4_W edg_3_3_S edg_4_3_N edg_3_3_N edg_2_3_N edg_1_3_E edg_1_4_W edg_1_3_W edg_1_2_N "	/>
		<route	id = "rou_234" edges ="edg_3_0_E edg_3_1_S edg_4_1_E edg_4_2_S "	/>
		<route	id = "rou_235" edges ="edg_1_5_W edg_1_4_N "	/>
		<route	id = "rou_236" edges ="edg_5_4_N edg_4_4_W edg_4_3_W edg_4_2_S "	/>
		<route	id = "rou_237" edges ="edg_0_4_S edg_1_4_W edg_1_3_W edg_1_2_W edg_1_1_E edg_1_2_N "	/>
		<route	id = "rou_238" edges ="edg_1_5_W edg_1_4_W edg_1_3_N "	/>
		<route	id = "rou_239" edges ="edg_3_0_E edg_3_1_S edg_4_1_W "	/>
		<route	id = "rou_240" edges ="edg_4_0_E edg_4_1_W "	/>
		<route	id = "rou_241" edges ="edg_1_0_E edg_1_1_N "	/>
		<route	id = "rou_242" edges ="edg_5_3_N edg_4_3_W edg_4_2_E edg_4_3_S "	/>
		<route	id = "rou_243" edges ="edg_3_0_E edg_3_1_N edg_2_1_N edg_1_1_S edg_2_1_S edg_3_1_S edg_4_1_S "	/>
		<route	id = "rou_244" edges ="edg_0_3_S edg_1_3_N "	/>
		<route	id = "rou_245" edges ="edg_5_4_N edg_4_4_S "	/>
		<route	id = "rou_246" edges ="edg_3_5_W edg_3_4_E "	/>
		<route	id = "rou_247" edges ="edg_1_0_E edg_1_1_E edg_1_2_E edg_1_3_S edg_2_3_S edg_3_3_N edg_2_3_W edg_2_2_S edg_3_2_S edg_4_2_E edg_4_3_W edg_4_2_S "	/>
		<route	id = "rou_248" edges ="edg_3_0_E edg_3_1_S edg_4_1_E edg_4_2_S "	/>
		<route	id = "rou_249" edges ="edg_3_5_W edg_3_4_E "	/>
		<route	id = "rou_250" edges ="edg_4_0_E edg_4_1_E edg_4_2_E edg_4_3_E edg_4_4_N edg_3_4_S edg_4_4_E "	/>
		<route	id = "rou_251" edges ="edg_3_5_W edg_3_4_N edg_2_4_W edg_2_3_E edg_2_4_W edg_2_3_E edg_2_4_S edg_3_4_S edg_4_4_S "	/>
		<route	id = "rou_252" edges ="edg_4_0_E edg_4_1_N edg_3_1_E edg_3_2_W edg_3_1_W "	/>
		<route	id = "rou_253" edges ="edg_5_3_N edg_4_3_W edg_4_2_W edg_4_1_W "	/>
		<route	id = "rou_254" edges ="edg_1_0_E edg_1_1_S edg_2_1_E edg_2_2_N edg_1_2_N "	/>
		<route	id = "rou_255" edges ="edg_3_5_W edg_3_4_E "	/>
		<route	id = "rou_256" edges ="edg_0_4_S edg_1_4_N "	/>
		<route	id = "rou_257" edges ="edg_5_2_N edg_4_2_N edg_3_2_E edg_3_3_N edg_2_3_W edg_2_2_W edg_2_1_N edg_1_1_N "	/>
		<route	id = "rou_258" edges ="edg_3_0_E edg_3_1_W "	/>
		<route	id = "rou_259" edges ="edg_2_0_E edg_2_1_E edg_2_2_W edg_2_1_W "	/>
		<route	id = "rou_260" edges ="edg_4_0_E edg_4_1_N edg_3_1_E edg_3_2_S edg_4_2_S "	/>
		<route	id = "rou_261" edges ="edg_4_5_W edg_4_4_N edg_3_4_W edg_3_3_W edg_3_2_N edg_2_2_N edg_1_2_E edg_1_3_N "	/>
		<route	id = "rou_262" edges ="edg_0_2_S edg_1_2_W edg_1_1_E edg_1_2_N "	/>
		<route	id = "rou_263" edges ="edg_3_0_E edg_3_1_E edg_3_2_N edg_2_2_W edg_2_1_N edg_1_1_W "	/>
		<route	id = "rou_264" edges ="edg_2_5_W edg_2_4_N edg_1_4_S edg_2_4_S edg_3_4_E "	/>
		<route	id = "rou_265" edges ="edg_5_2_N edg_4_2_W edg_4_1_N edg_3_1_S edg_4_1_E edg_4_2_N edg_3_2_W edg_3_1_S edg_4_1_W "	/>
		<route	id = "rou_266" edges ="edg_1_5_W edg_1_4_N "	/>
		<route	id = "rou_267" edges ="edg_5_3_N edg_4_3_W edg_4_2_S "	/>
		<route	id = "rou_268" edges ="edg_2_0_E edg_2_1_S edg_3_1_S edg_4_1_S "	/>
		<route	id = "rou_269" edges ="edg_5_2_N edg_4_2_W edg_4_1_E edg_4_2_E edg_4_3_W edg_4_2_W edg_4_1_N edg_3_1_E edg_3_2_W edg_3_1_E edg_3_2_S edg_4_2_W edg_4_1_N edg_3_1_S edg_4_1_E edg_4_2_E edg_4_3_N edg_3_3_E edg_3_4_S edg_4_4_S "	/>
		<route	id = "rou_270" edges ="edg_5_1_N edg_4_1_W "	/>
		<route	id = "rou_271" edges ="edg_0_4_S edg_1_4_E "	/>
		<route	id = "rou_272" edges ="edg_2_0_E edg_2_1_S edg_3_1_N edg_2_1_S edg_3_1_E edg_3_2_E edg_3_3_E edg_3_4_N edg_2_4_W edg_2_3_S edg_3_3_N edg_2_3_N edg_1_3_W edg_1_2_W edg_1_1_E edg_1_2_N "	/>
		<route	id = "rou_273" edges ="edg_0_2_S edg_1_2_W edg_1_1_W "	/>
		<route	id = "rou_274" edges ="edg_1_0_E edg_1_1_S edg_2_1_W "	/>
		<route	id = "rou_275" edges ="edg_4_0_E edg_4_1_E edg_4_2_E edg_4_3_E edg_4_4_W edg_4_3_W edg_4_2_N edg_3_2_S edg_4_2_N edg_3_2_E edg_3_3_W edg_3_2_E edg_3_3_S edg_4_3_S "	/>
		<route	id = "rou_276" edges ="edg_5_3_N edg_4_3_S "	/>
		<route	id = "rou_277" edges ="edg_0_2_S edg_1_2_N "	/>
		<route	id = "rou_278" edges ="edg_0_3_S edg_1_3_N "	/>
		<route	id = "rou_279" edges ="edg_5_4_N edg_4_4_E "	/>
		<route	id = "rou_280" edges ="edg_3_0_E edg_3_1_N edg_2_1_E edg_2_2_N edg_1_2_N "	/>
		<route	id = "rou_281" edges ="edg_0_1_S edg_1_1_W "	/>
		<route	id = "rou_282" edges ="edg_5_3_N edg_4_3_W edg_4_2_W edg_4_1_W "	/>
		<route	id = "rou_283" edges ="edg_4_5_W edg_4_4_N edg_3_4_N edg_2_4_W edg_2_3_S edg_3_3_E edg_3_4_W edg_3_3_N edg_2_3_N edg_1_3_S edg_2_3_E edg_2_4_E "	/>
		<route	id = "rou_284" edges ="edg_2_5_W edg_2_4_W edg_2_3_W edg_2_2_E edg_2_3_N edg_1_3_N "	/>
		<route	id = "rou_285" edges ="edg_2_5_W edg_2_4_W edg_2_3_W edg_2_2_N edg_1_2_E edg_1_3_E edg_1_4_W edg_1_3_W edg_1_2_N "	/>
		<route	id = "rou_286" edges ="edg_2_0_E edg_2_1_N edg_1_1_E edg_1_2_E edg_1_3_W edg_1_2_S edg_2_2_E edg_2_3_W edg_2_2_S edg_3_2_W edg_3_1_E edg_3_2_N edg_2_2_W edg_2_1_E edg_2_2_S edg_3_2_S edg_4_2_S "	/>
		<route	id = "rou_287" edges ="edg_0_1_S edg_1_1_N "	/>
		<route	id = "rou_288" edges ="edg_3_5_W edg_3_4_N edg_2_4_E "	/>
		<route	id = "rou_289" edges ="edg_4_0_E edg_4_1_E edg_4_2_N edg_3_2_S edg_4_2_W edg_4_1_N edg_3_1_W "	/>
		<route	id = "rou_290" edges ="edg_5_3_N edg_4_3_W edg_4_2_S "	/>
		<route	id = "rou_291" edges ="edg_5_4_N edg_4_4_S "	/>
		<route	id = "rou_292" edges ="edg_0_4_S edg_1_4_N "	/>
		<route	id = "rou_293" edges ="edg_2_5_W edg_2_4_S edg_3_4_W edg_3_3_E edg_3_4_E "	/>
		<route	id = "rou_294" edges ="edg_1_5_W edg_1_4_W edg_1_3_N "	/>
		<route	id = "rou_295" edges ="edg_2_5_W edg_2_4_N edg_1_4_N "	/>
		<route	id = "rou_296" edges ="edg_2_5_W edg_2_4_W edg_2_3_W edg_2_2_W edg_2_1_E edg_2_2_N edg_1_2_E edg_1_3_E edg_1_4_E "	/>
		<route	id = "rou_297" edges ="edg_5_2_N edg_4_2_S "	/>
		<route	id = "rou_298" edges ="edg_1_5_W edg_1_4_E "	/>
		<route	id = "rou_299" edges ="edg_3_0_E edg_3_1_W "	/>
		<vehicle id = "veh_0" type = "emergency" route = "rou_13" depart = "0.000000" />
		<vehicle id = "veh_1" type = "passenger" route = "rou_163" depart = "1.000000" />
		<vehicle id = "veh_2" type = "emergency" route = "rou_176" depart = "2.000000" />
		<vehicle id = "veh_3" type = "transport" route = "rou_255" depart = "3.000000" />
		<vehicle id = "veh_4" type = "emergency" route = "rou_143" depart = "4.000000" />
		<vehicle id = "veh_5" type = "emergency" route = "rou_63" depart = "5.000000" />
		<vehicle id = "veh_6" type = "bus" route = "rou_7" depart = "6.000000" />
		<vehicle id = "veh_7" type = "emergency" route = "rou_1" depart = "7.000000" />
		<vehicle id = "veh_8" type = "emergency" route = "rou_125" depart = "8.000000" />
		<vehicle id = "veh_9" type = "transport" route = "rou_110" depart = "9.000000" />
		<vehicle id = "veh_10" type = "transport" route = "rou_84" depart = "10.000000" />
		<vehicle id = "veh_11" type = "bus" route = "rou_256" depart = "11.000000" />
		<vehicle id = "veh_12" type = "emergency" route = "rou_250" depart = "12.000000" />
		<vehicle id = "veh_13" type = "emergency" route = "rou_52" depart = "13.000000" />
		<vehicle id = "veh_14" type = "emergency" route = "rou_259" depart = "14.000000" />
		<vehicle id = "veh_15" type = "bus" route = "rou_269" depart = "15.000000" />
		<vehicle id = "veh_16" type = "transport" route = "rou_52" depart = "16.000000" />
		<vehicle id = "veh_17" type = "transport" route = "rou_36" depart = "17.000000" />
		<vehicle id = "veh_18" type = "emergency" route = "rou_21" depart = "18.000000" />
		<vehicle id = "veh_19" type = "passenger" route = "rou_113" depart = "19.000000" />
		<vehicle id = "veh_20" type = "passenger" route = "rou_168" depart = "20.000000" />
		<vehicle id = "veh_21" type = "emergency" route = "rou_259" depart = "21.000000" />
		<vehicle id = "veh_22" type = "passenger" route = "rou_74" depart = "22.000000" />
		<vehicle id = "veh_23" type = "transport" route = "rou_276" depart = "23.000000" />
		<vehicle id = "veh_24" type = "transport" route = "rou_53" depart = "24.000000" />
		<vehicle id = "veh_25" type = "emergency" route = "rou_253" depart = "25.000000" />
		<vehicle id = "veh_26" type = "transport" route = "rou_191" depart = "26.000000" />
		<vehicle id = "veh_27" type = "transport" route = "rou_116" depart = "27.000000" />
		<vehicle id = "veh_28" type = "passenger" route = "rou_87" depart = "28.000000" />
		<vehicle id = "veh_29" type = "bus" route = "rou_16" depart = "29.000000" />
		<vehicle id = "veh_30" type = "passenger" route = "rou_68" depart = "30.000000" />
		<vehicle id = "veh_31" type = "passenger" route = "rou_18" depart = "31.000000" />
		<vehicle id = "veh_32" type = "passenger" route = "rou_32" depart = "32.000000" />
		<vehicle id = "veh_33" type = "emergency" route = "rou_115" depart = "33.000000" />
		<vehicle id = "veh_34" type = "passenger" route = "rou_142" depart = "34.000000" />
		<vehicle id = "veh_35" type = "transport" route = "rou_165" depart = "35.000000" />
		<vehicle id = "veh_36" type = "emergency" route = "rou_274" depart = "36.000000" />
		<vehicle id = "veh_37" type = "emergency" route = "rou_89" depart = "37.000000" />
		<vehicle id = "veh_38" type = "emergency" route = "rou_130" depart = "38.000000" />
		<vehicle id = "veh_39" type = "bus" route = "rou_20" depart = "39.000000" />
		<vehicle id = "veh_40" type = "emergency" route = "rou_77" depart = "40.000000" />
		<vehicle id = "veh_41" type = "passenger" route = "rou_130" depart = "41.000000" />
		<vehicle id = "veh_42" type = "passenger" route = "rou_220" depart = "42.000000" />