<?xml version="1.0" encoding="UTF-8"?>
	<routes xmlns:xsi="http://www.w3.org/2001/XMLSchema-instance" xsi:noNamespaceSchemaLocation="Data/GridNetwork/GridNetwork.rou.xml">
	
		<vType id = "passenger" accel = "2.600000"	decel = "4.500000" minGap = "2.500000" sigma = "0.500000" color = "1,1,0" length = "5.000000" maxSpeed = "16.670000" speedFactor = "1.000000" speedDev = "0.100000" guiShape = "passenger"		/>
		<vType id = "emergency" accel = "3.000000"	decel = "5.500000" minGap = "2.500000" sigma = "0.100000" color = "1,0,0" length = "7.000000" maxSpeed = "30.000000" speedFactor = "1.000000" speedDev = "0.100000" guiShape = "passenger/van"		/>
		<vType id = "transport" accel = "2.600000"	decel = "4.500000" minGap = "3.000000" sigma = "0.500000" color = "0,0,1" length = "10.000000" maxSpeed = "20.000000" speedFactor = "1.000000" speedDev = "0.100000" guiShape = "transport"		/>
		<vType id = "bus" accel = "2.600000"	decel = "4.500000" minGap = "3.000000" sigma = "0.500000" color = "0,1,0" length = "10.000000" maxSpeed = "20.000000" speedFactor = "1.000000" speedDev = "0.100000" guiShape = "bus"		/>
		<route	id = "rou_0" edges ="edg_6_5_N edg_5_5_S "	/>
		<route	id = "rou_1" edges ="edg_0_4_S edg_1_4_W edg_1_3_W edg_1_2_N "	/>
		<route	id = "rou_2" edges ="edg_3_6_W edg_3_5_W edg_3_4_S edg_4_4_W edg_4_3_W edg_4_2_W edg_4_1_E edg_4_2_N edg_3_2_W edg_3_1_E edg_3_2_W edg_3_1_S edg_4_1_S edg_5_1_W "	/>
		<route	id = "rou_3" edges ="edg_6_3_N edg_5_3_W edg_5_2_W edg_5_1_W "	/>
		<route	id = "rou_4" edges ="edg_1_6_W edg_1_5_W edg_1_4_N "	/>
		<route	id = "rou_5" edges ="edg_6_5_N edg_5_5_S "	/>
		<route	id = "rou_6" edges ="edg_6_3_N edg_5_3_S "	/>
		<route	id = "rou_7" edges ="edg_0_4_S edg_1_4_N "	/>
		<route	id = "rou_8" edges ="edg_6_5_N edg_5_5_N edg_4_5_S edg_5_5_E "	/>
		<route	id = "rou_9" edges ="edg_6_3_N edg_5_3_E edg_5_4_E edg_5_5_N edg_4_5_N edg_3_5_N edg_2_5_S edg_3_5_W edg_3_4_S edg_4_4_W edg_4_3_E edg_4_4_E edg_4_5_S edg_5_5_W edg_5_4_E edg_5_5_N edg_4_5_W edg_4_4_W edg_4_3_E edg_4_4_W edg_4_3_E edg_4_4_N edg_3_4_N edg_2_4_E edg_2_5_W edg_2_4_N edg_1_4_N "	/>
		<route	id = "rou_10" edges ="edg_0_5_S edg_1_5_N "	/>
		<route	id = "rou_11" edges ="edg_4_6_W edg_4_5_S edg_5_5_S "	/>
		<route	id = "rou_12" edges ="edg_1_0_E edg_1_1_E edg_1_2_N "	/>
		<route	id = "rou_13" edges ="edg_6_4_N edg_5_4_E edg_5_5_W edg_5_4_W edg_5_3_N edg_4_3_N edg_3_3_E edg_3_4_S edg_4_4_E edg_4_5_N edg_3_5_S edg_4_5_S edg_5_5_N edg_4_5_N edg_3_5_N edg_2_5_E "	/>
		<route	id = "rou_14" edges ="edg_3_6_W edg_3_5_E "	/>
		<route	id = "rou_15" edges ="edg_0_4_S edg_1_4_W edg_1_3_E edg_1_4_W edg_1_3_S edg_2_3_S edg_3_3_N edg_2_3_N edg_1_3_N "	/>
		<route	id = "rou_16" edges ="edg_2_0_E edg_2_1_N edg_1_1_S edg_2_1_N edg_1_1_S edg_2_1_W "	/>
		<route	id = "rou_17" edges ="edg_5_0_E edg_5_1_E edg_5_2_N edg_4_2_E edg_4_3_N edg_3_3_W edg_3_2_S edg_4_2_W edg_4_1_N edg_3_1_E edg_3_2_E edg_3_3_E edg_3_4_S edg_4_4_E edg_4_5_W edg_4_4_N edg_3_4_E edg_3_5_E "	/>
		<route	id = "rou_18" edges ="edg_5_6_W edg_5_5_N edg_4_5_E "	/>
		<route	id = "rou_19" edges ="edg_5_0_E edg_5_1_S "	/>
		<route	id = "rou_20" edges ="edg_6_1_N edg_5_1_N edg_4_1_N edg_3_1_E edg_3_2_N edg_2_2_W edg_2_1_W "	/>
		<route	id = "rou_21" edges ="edg_0_2_S edg_1_2_E edg_1_3_N "	/>
		<route	id = "rou_22" edges ="edg_4_0_E edg_4_1_E edg_4_2_E edg_4_3_W edg_4_2_E edg_4_3_S edg_5_3_E edg_5_4_W edg_5_3_N edg_4_3_N edg_3_3_E edg_3_4_N edg_2_4_W edg_2_3_W edg_2_2_W edg_2_1_W "	/>
		<route	id = "rou_23" edges ="edg_2_0_E edg_2_1_E edg_2_2_N edg_1_2_E edg_1_3_E edg_1_4_S edg_2_4_S edg_3_4_S edg_4_4_S edg_5_4_S "	/>
		<route	id = "rou_24" edges ="edg_0_5_S edg_1_5_S edg_2_5_E "	/>
		<route	id = "rou_25" edges ="edg_3_0_E edg_3_1_N edg_2_1_E edg_2_2_S edg_3_2_N edg_2_2_W edg_2_1_N edg_1_1_E edg_1_2_E edg_1_3_N "	/>
		<route	id = "rou_26" edges ="edg_1_6_W edg_1_5_S edg_2_5_W edg_2_4_W edg_2_3_W edg_2_2_S edg_3_2_S edg_4_2_E edg_4_3_N edg_3_3_W edg_3_2_E edg_3_3_S edg_4_3_E edg_4_4_W edg_4_3_S edg_5_3_W edg_5_2_E edg_5_3_N edg_4_3_E edg_4_4_E edg_4_5_E "	/>
		<route	id = "rou_27" edges ="edg_0_1_S edg_1_1_E edg_1_2_N "	/>
		<route	id = "rou_28" edges ="edg_3_0_E edg_3_1_E edg_3_2_N edg_2_2_E edg_2_3_E edg_2_4_W edg_2_3_S edg_3_3_S edg_4_3_N edg_3_3_N edg_2_3_N edg_1_3_E edg_1_4_W edg_1_3_W edg_1_2_E edg_1_3_S edg_2_3_N edg_1_3_N "	/>
		<route	id = "rou_29" edges ="edg_4_0_E edg_4_1_N edg_3_1_N edg_2_1_E edg_2_2_N edg_1_2_E edg_1_3_S edg_2_3_E edg_2_4_S edg_3_4_E edg_3_5_N edg_2_5_S edg_3_5_W edg_3_4_S edg_4_4_W edg_4_3_N edg_3_3_W edg_3_2_N edg_2_2_E edg_2_3_W edg_2_2_W edg_2_1_W "	/>
		<route	id = "rou_30" edges ="edg_4_0_E edg_4_1_N edg_3_1_N edg_2_1_E edg_2_2_N edg_1_2_W edg_1_1_W "	/>
		<route	id = "rou_31" edges ="edg_1_0_E edg_1_1_W "	/>
		<route	id = "rou_32" edges ="edg_1_6_W edg_1_5_W edg_1_4_E edg_1_5_S edg_2_5_N edg_1_5_N "	/>
		<route	id = "rou_33" edges ="edg_6_4_N edg_5_4_W edg_5_3_N edg_4_3_N edg_3_3_W edg_3_2_N edg_2_2_E edg_2_3_S edg_3_3_S edg_4_3_W edg_4_2_E edg_4_3_N edg_3_3_S edg_4_3_S edg_5_3_N edg_4_3_W edg_4_2_S edg_5_2_S "	/>
		<route	id = "rou_34" edges ="edg_6_5_N edg_5_5_W edg_5_4_W edg_5_3_W edg_5_2_N edg_4_2_S edg_5_2_E edg_5_3_E edg_5_4_N edg_4_4_E edg_4_5_S edg_5_5_S "	/>
		<route	id = "rou_35" edges ="edg_4_6_W edg_4_5_W edg_4_4_S edg_5_4_E edg_5_5_S "	/>
		<route	id = "rou_36" edges ="edg_6_5_N edg_5_5_N edg_4_5_S edg_5_5_S "	/>
		<route	id = "rou_37" edges ="edg_0_3_S edg_1_3_W edg_1_2_E edg_1_3_E edg_1_4_W edg_1_3_W edg_1_2_S edg_2_2_S edg_3_2_W edg_3_1_E edg_3_2_E edg_3_3_S edg_4_3_E edg_4_4_E edg_4_5_E "	/>
		<route	id = "rou_38" edges ="edg_5_6_W edg_5_5_W edg_5_4_E edg_5_5_S "	/>
		<route	id = "rou_39" edges ="edg_0_3_S edg_1_3_W edg_1_2_W edg_1_1_S edg_2_1_W "	/>
		<route	id = "rou_40" edges ="edg_5_6_W edg_5_5_W edg_5_4_W edg_5_3_W edg_5_2_E edg_5_3_S "	/>
		<route	id = "rou_41" edges ="edg_0_5_S edg_1_5_W edg_1_4_N "	/>
		<route	id = "rou_42" edges ="edg_5_0_E edg_5_1_W "	/>
		<route	id = "rou_43" edges ="edg_5_6_W edg_5_5_S "	/>
		<route	id = "rou_44" edges ="edg_6_3_N edg_5_3_N edg_4_3_S edg_5_3_S "	/>
		<route	id = "rou_45" edges ="edg_6_4_N edg_5_4_W edg_5_3_S "	/>
		<route	id = "rou_46" edges ="edg_2_6_W edg_2_5_E "	/>
		<route	id = "rou_47" edges ="edg_6_4_N edg_5_4_E edg_5_5_N edg_4_5_E "	/>
		<route	id = "rou_48" edges ="edg_4_6_W edg_4_5_W edg_4_4_E edg_4_5_N edg_3_5_S edg_4_5_W edg_4_4_N edg_3_4_N edg_2_4_S edg_3_4_E edg_3_5_S edg_4_5_N edg_3_5_W edg_3_4_W edg_3_3_E edg_3_4_S edg_4_4_N edg_3_4_W edg_3_3_S edg_4_3_W edg_4_2_W edg_4_1_N edg_3_1_E edg_3_2_S edg_4_2_S edg_5_2_N edg_4_2_E edg_4_3_E edg_4_4_S edg_5_4_W edg_5_3_E edg_5_4_N edg_4_4_N edg_3_4_N edg_2_4_S edg_3_4_S edg_4_4_W edg_4_3_S edg_5_3_E edg_5_4_N edg_4_4_N edg_3_4_E edg_3_5_N edg_2_5_E "	/>
		<route	id = "rou_49" edges ="edg_1_0_E edg_1_1_E edg_1_2_N "	/>
		<route	id = "rou_50" edges ="edg_2_6_W edg_2_5_W edg_2_4_W edg_2_3_S edg_3_3_S edg_4_3_S edg_5_3_E edg_5_4_N edg_4_4_N edg_3_4_E edg_3_5_S edg_4_5_W edg_4_4_W edg_4_3_N edg_3_3_N edg_2_3_W edg_2_2_W edg_2_1_E edg_2_2_S edg_3_2_S edg_4_2_S edg_5_2_S "	/>
		<route	id = "rou_51" edges ="edg_6_3_N edg_5_3_W edg_5_2_N edg_4_2_E edg_4_3_E edg_4_4_N edg_3_4_N edg_2_4_S edg_3_4_E edg_3_5_E "	/>
		<route	id = "rou_52" edges ="edg_6_5_N edg_5_5_S "	/>
		<route	id = "rou_53" edges ="edg_1_6_W edg_1_5_S edg_2_5_E "	/>
		<route	id = "rou_54" edges ="edg_5_6_W edg_5_5_E "	/>
		<route	id = "rou_55" edges ="edg_2_6_W edg_2_5_S edg_3_5_E "	/>
		<route	id = "rou_56" edges ="edg_1_6_W edg_1_5_S edg_2_5_N edg_1_5_N "	/>
		<route	id = "rou_57" edges ="edg_5_6_W edg_5_5_N edg_4_5_W edg_4_4_W edg_4_3_N edg_3_3_W edg_3_2_E edg_3_3_W edg_3_2_N edg_2_2_E edg_2_3_E edg_2_4_W edg_2_3_N edg_1_3_N "	/>
		<route	id = "rou_58" edges ="edg_1_0_E edg_1_1_W "	/>
		<route	id = "rou_59" edges ="edg_2_6_W edg_2_5_S edg_3_5_E "	/>
		<route	id = "rou_60" edges ="edg_1_6_W edg_1_5_S edg_2_5_E "	/>
		<route	id = "rou_61" edges ="edg_6_2_N edg_5_2_W edg_5_1_W "	/>
		<route	id = "rou_62" edges ="edg_1_6_W edg_1_5_W edg_1_4_S edg_2_4_N edg_1_4_N "	/>
		<route	id = "rou_63" edges ="edg_6_1_N edg_5_1_W "	/>
		<route	id = "rou_64" edges ="edg_3_6_W edg_3_5_E "	/>
		<route	id = "rou_65" edges ="edg_6_1_N edg_5_1_S "	/>
		<route	id = "rou_66" edges ="edg_0_2_S edg_1_2_E edg_1_3_W edg_1_2_W edg_1_1_E edg_1_2_S edg_2_2_W edg_2_1_N edg_1_1_E edg_1_2_N "	/>
		<route	id = "rou_67" edges ="edg_0_3_S edg_1_3_S edg_2_3_S edg_3_3_W edg_3_2_W edg_3_1_S edg_4_1_N edg_3_1_W "	/>
		<route	id = "rou_68" edges ="edg_6_2_N edg_5_2_W edg_5_1_N edg_4_1_N edg_3_1_W "	/>
		<route	id = "rou_69" edges ="edg_0_1_S edg_1_1_N "	/>
		<route	id = "rou_70" edges ="edg_0_2_S edg_1_2_W edg_1_1_N "	/>
		<route	id = "rou_71" edges ="edg_0_3_S edg_1_3_N "	/>
		<route	id = "rou_72" edges ="edg_6_2_N edg_5_2_W edg_5_1_N edg_4_1_S edg_5_1_E edg_5_2_E edg_5_3_S "	/>
		<route	id = "rou_73" edges ="edg_5_6_W edg_5_5_W edg_5_4_E edg_5_5_N edg_4_5_N edg_3_5_W edg_3_4_W edg_3_3_W edg_3_2_S edg_4_2_E edg_4_3_W edg_4_2_S edg_5_2_E edg_5_3_W edg_5_2_W edg_5_1_E edg_5_2_N edg_4_2_N edg_3_2_E edg_3_3_E edg_3_4_W edg_3_3_W edg_3_2_N edg_2_2_E edg_2_3_S edg_3_3_S edg_4_3_E edg_4_4_N edg_3_4_S edg_4_4_W edg_4_3_N edg_3_3_S edg_4_3_W edg_4_2_E edg_4_3_E edg_4_4_W edg_4_3_W edg_4_2_S edg_5_2_E edg_5_3_W edg_5_2_E edg_5_3_W edg_5_2_E edg_5_3_W edg_5_2_W edg_5_1_S "	/>
		<route	id = "rou_74" edges ="edg_2_6_W edg_2_5_E "	/>
		<route	id = "rou_75" edges ="edg_2_6_W edg_2_5_N edg_1_5_S edg_2_5_W edg_2_4_S edg_3_4_N edg_2_4_S edg_3_4_E edg_3_5_S edg_4_5_E "	/>
		<route	id = "rou_76" edges ="edg_6_4_N edg_5_4_N edg_4_4_N edg_3_4_N edg_2_4_W edg_2_3_N edg_1_3_W edg_1_2_W edg_1_1_S edg_2_1_S edg_3_1_S edg_4_1_W "	/>
		<route	id = "rou_77" edges ="edg_6_2_N edg_5_2_W edg_5_1_N edg_4_1_N edg_3_1_W "	/>
		<route	id = "rou_78" edges ="edg_3_0_E edg_3_1_N edg_2_1_S edg_3_1_E edg_3_2_N edg_2_2_S edg_3_2_E edg_3_3_W edg_3_2_S edg_4_2_N edg_3_2_S edg_4_2_S edg_5_2_S "	/>
		<route	id = "rou_79" edges ="edg_0_2_S edg_1_2_N "	/>
		<route	id = "rou_80" edges ="edg_3_6_W edg_3_5_N edg_2_5_S edg_3_5_N edg_2_5_W edg_2_4_E edg_2_5_S edg_3_5_W edg_3_4_W edg_3_3_N edg_2_3_N edg_1_3_N "	/>
		<route	id = "rou_81" edges ="edg_0_3_S edg_1_3_W edg_1_2_S edg_2_2_S edg_3_2_W edg_3_1_N edg_2_1_W "	/>
		<route	id = "rou_82" edges ="edg_4_6_W edg_4_5_W edg_4_4_E edg_4_5_S edg_5_5_W edg_5_4_S "	/>
		<route	id = "rou_83" edges ="edg_5_6_W edg_5_5_S "	/>
		<route	id = "rou_84" edges ="edg_4_6_W edg_4_5_E "	/>
		<route	id = "rou_85" edges ="edg_4_0_E edg_4_1_E edg_4_2_S edg_5_2_W edg_5_1_W "	/>
		<route	id = "rou_86" edges ="edg_5_0_E edg_5_1_W "	/>
		<route	id = "rou_87" edges ="edg_4_0_E edg_4_1_W "	/>
		<route	id = "rou_88" edges ="edg_4_6_W edg_4_5_N edg_3_5_W edg_3_4_S edg_4_4_W edg_4_3_E edg_4_4_S edg_5_4_W edg_5_3_S "	/>
		<route	id = "rou_89" edges ="edg_5_0_E edg_5_1_E edg_5_2_E edg_5_3_W edg_5_2_N edg_4_2_N edg_3_2_N edg_2_2_S edg_3_2_W edg_3_1_N edg_2_1_S edg_3_1_N edg_2_1_W "	/>
		<route	id = "rou_90" edges ="edg_2_6_W edg_2_5_E "	/>
		<route	id = "rou_91" edges ="edg_6_4_N edg_5_4_E edg_5_5_W edg_5_4_W edg_5_3_N edg_4_3_W edg_4_2_N edg_3_2_W edg_3_1_N edg_2_1_E edg_2_2_E edg_2_3_N edg_1_3_S edg_2_3_E edg_2_4_W edg_2_3_W edg_2_2_N edg_1_2_W edg_1_1_S edg_2_1_E edg_2_2_N edg_1_2_N "	/>
		<route	id = "rou_92" edges ="edg_1_6_W edg_1_5_W edg_1_4_N "	/>
		<route	id = "rou_93" edges ="edg_5_6_W edg_5_5_N edg_4_5_S edg_5_5_E "	/>
		<route	id = "rou_94" edges ="edg_6_2_N edg_5_2_E edg_5_3_E edg_5_4_N edg_4_4_S edg_5_4_N edg_4_4_S edg_5_4_N edg_4_4_N edg_3_4_N edg_2_4_S edg_3_4_E edg_3_5_W edg_3_4_W edg_3_3_N edg_2_3_W edg_2_2_W edg_2_1_N edg_1_1_N "	/>
		<route	id = "rou_95" edges ="edg_0_4_S edg_1_4_W edg_1_3_E edg_1_4_E edg_1_5_W edg_1_4_E edg_1_5_E "	/>
		<route	id = "rou_96" edges ="edg_0_4_S edg_1_4_N "	/>
		<route	id = "rou_97" edges ="edg_0_4_S edg_1_4_S edg_2_4_S edg_3_4_E edg_3_5_N edg_2_5_S edg_3_5_E "	/>
		<route	id = "rou_98" edges ="edg_6_4_N edg_5_4_W edg_5_3_E edg_5_4_S "	/>
		<route	id = "rou_99" edges ="edg_0_1_S edg_1_1_E edg_1_2_N "	/>
		<route	id = "rou_100" edges ="edg_5_0_E edg_5_1_E edg_5_2_S "	/>
		<route	id = "rou_101" edges ="edg_6_5_N edg_5_5_W edg_5_4_E edg_5_5_N edg_4_5_S edg_5_5_E "	/>
		<route	id = "rou_102" edges ="edg_0_2_S edg_1_2_N "	/>
		<route	id = "rou_103" edges ="edg_0_5_S edg_1_5_W edg_1_4_S edg_2_4_N edg_1_4_W edg_1_3_W edg_1_2_S edg_2_2_E edg_2_3_W edg_2_2_S edg_3_2_W edg_3_1_S edg_4_1_W "	/>
		<route	id = "rou_104" edges ="edg_5_6_W edg_5_5_S "	/>
		<route	id = "rou_105" edges ="edg_0_2_S edg_1_2_N "	/>
		<route	id = "rou_106" edges ="edg_1_6_W edg_1_5_N "	/>
		<route	id = "rou_107" edges ="edg_6_1_N edg_5_1_E edg_5_2_S "	/>
		<route	id = "rou_108" edges ="edg_4_6_W edg_4_5_W edg_4_4_W edg_4_3_E edg_4_4_W edg_4_3_S edg_5_3_S "	/>
		<route	id = "rou_109" edges ="edg_6_2_N edg_5_2_E edg_5_3_N edg_4_3_E edg_4_4_N edg_3_4_S edg_4_4_E edg_4_5_E "	/>
		<route	id = "rou_110" edges ="edg_5_0_E edg_5_1_S "	/>
		<route	id = "rou_111" edges ="edg_0_4_S edg_1_4_S edg_2_4_N edg_1_4_N "	/>
		<route	id = "rou_112" edges ="edg_6_2_N edg_5_2_S "	/>
		<vehicle id = "veh_0" type = "transport" route = "rou_1" depart = "0.000000" />
		<vehicle id = "veh_1" type = "transport" route = "rou_50" depart = "1.000000" />
		<vehicle id = "veh_2" type = "transport" route = "rou_74" depart = "2.000000" />
		<vehicle id = "veh_3" type = "emergency" route = "rou_45" depart = "3.000000" />
		<vehicle id = "veh_4" type = "bus" route = "rou_72" depart = "4.000000" />
		<vehicle id = "veh_5" type = "transport" route = "rou_43" depart = "5.000000" />
		<vehicle id = "veh_6" type = "emergency" route = "rou_110" depart = "6.000000" />
		<vehicle id = "veh_7" type = "passenger" route = "rou_13" depart = "7.000000" />
		<vehicle id = "veh_8" type = "transport" route = "rou_94" depart = "8.000000" />
		<vehicle id = "veh_9" type = "transport" route = "rou_56" depart = "9.000000" />
		<vehicle id = "veh_10" type = "bus" route = "rou_92" depart = "10.000000" />
		<vehicle id = "veh_11" type = "transport" route = "rou_18" depart = "11.000000" />
		<vehicle id = "veh_12" type = "transport" route = "rou_76" depart = "12.000000" />
		<vehicle id = "veh_13" type = "emergency" route = "rou_10" depart = "13.000000" />
		<vehicle id = "veh_14" type = "transport" route = "rou_41" depart = "14.000000" />
		<vehicle id = "veh_15" type = "transport" route = "rou_99" depart = "15.000000" />
		<vehicle id = "veh_16" type = "transport" route = "rou_56" depart = "16.000000" />
		<vehicle id = "veh_17" type = "bus" route = "rou_63" depart = "17.000000" />
		<vehicle id = "veh_18" type = "passenger" route = "rou_39" depart = "18.000000" />
		<vehicle id = "veh_19" type = "transport" route = "rou_23" depart = "19.000000" />
		<vehicle id = "veh_20" type = "transport" route = "rou_21" depart = "20.000000" />
		<vehicle id = "veh_21" type = "bus" route = "rou_79" depart = "21.000000" />
		<vehicle id = "veh_22" type = "bus" route = "rou_96" depart = "22.000000" />
		<vehicle id = "veh_23" type = "bus" route = "rou_19" depart = "23.000000" />
		<vehicle id = "veh_24" type = "bus" route = "rou_30" depart = "24.000000" />
		<vehicle id = "veh_25" type = "emergency" route = "rou_106" depart = "25.000000" />
		<vehicle id = "veh_26" type = "transport" route = "rou_59" depart = "26.000000" />
		<vehicle id = "veh_27" type = "transport" route = "rou_70" depart = "27.000000" />
		<vehicle id = "veh_28" type = "bus" route = "rou_33" depart = "28.000000" />
		<vehicle id = "veh_29" type = "transport" route = "rou_30" depart = "29.000000" />
		<vehicle id = "veh_30" type = "transport" route = "rou_15" depart = "30.000000" />
		<vehicle id = "veh_31" type = "emergency" route = "rou_83" depart = "31.000000" />
		<vehicle id = "veh_32" type = "transport" route = "rou_28" depart = "32.000000" />
		<vehicle id = "veh_33" type = "bus" route = "rou_12" depart = "33.000000" />
		<vehicle id = "veh_34" type = "passenger" route = "rou_81" depart = "34.000000" />
		<vehicle id = "veh_35" type = "bus" route = "rou_78" depart = "35.000000" />
		<vehicle id = "veh_36" type = "passenger" route = "rou_97" depart = "36.000000" />
		<vehicle id = "veh_37" type = "passenger" route = "rou_71" depart = "37.000000" />
		<vehicle id = "veh_38" type = "transport" route = "rou_2" depart = "38.000000" />
		<vehicle id = "veh_39" type = "passenger" route = "rou_111" depart = "39.000000" />
		<vehicle id = "veh_40" type = "bus" route = "rou_49" depart = "40.000000" />
		<vehicle id = "veh_41" type = "transport" route = "rou_2" depart = "41.000000" />
		<vehicle id = "veh_42" type = "bus" route = "rou_97" depart = "42.000000" />
		<vehicle id = "veh_43" type = "transport" route = "rou_107" depart = "43.000000" />
		<vehicle id = "veh_44" type = "emergency" route = "rou_32" depart = "44.000000" />
		<vehicle id = "veh_45" type = "bus" route = "rou_42" depart = "45.000000" />
		<vehicle id = "veh_46" type = "transport" route = "rou_61" depart = "46.000000" />
		<vehicle id = "veh_47" type = "emergency" route = "rou_42" depart = "47.000000" />
		<vehicle id = "veh_48" type = "transport" route = "rou_13" depart = "48.000000" />
		<vehicle id = "veh_49" type = "bus" route = "rou_105" depart = "49.000000" />
		<vehicle id = "veh_50" type = "transport" route = "rou_87" depart = "50.000000" />
		<vehicle id = "veh_51" type = "transport" route = "rou_68" depart = "51.000000" />
		<vehicle id = "veh_52" type = "bus" route = "rou_30" depart = "52.000000" />
		<vehicle id = "veh_53" type = "emergency" route = "rou_13" depart = "53.000000" />
		<vehicle id = "veh_54" type = "bus" route = "rou_3" depart = "54.000000" />
		<vehicle id = "veh_55" type = "bus" route = "rou_92" depart = "55.000000" />
		<vehicle id = "veh_56" type = "passenger" route = "rou_5" depart = "56.000000" />
		<vehicle id = "veh_57" type = "passenger" route = "rou_98" depart = "57.000000" />
		<vehicle id = "veh_58" type = "emergency" route = "rou_91" depart = "58.000000" />
		<vehicle id = "veh_59" type = "emergency" route = "rou_43" depart = "59.000000" />
		<vehicle id = "veh_60" type = "emergency" route = "rou_94" depart = "60.000000" />
		<vehicle id = "veh_61" type = "passenger" route = "rou_85" depart = "61.000000" />
		<vehicle id = "veh_62" type = "transport" route = "rou_17" depart = "62.000000" />
		<vehicle id = "veh_63" type = "passenger" route = "rou_20" depart = "63.000000" />
		<vehicle id = "veh_64" type = "transport" route = "rou_90" depart = "64.000000" />
		<vehicle id = "veh_65" type = "passenger" route = "rou_39" depart = "65.000000" />
		<vehicle id = "veh_66" type = "bus" route = "rou_102" depart = "66.000000" />
		<vehicle id = "veh_67" type = "passenger" route = "rou_31" depart = "67.000000" />
		<vehicle id = "veh_68" type = "emergency" route = "rou_112" depart = "68.000000" />
		<vehicle id = "veh_69" type = "transport" route = "rou_96" depart = "69.000000" />
		<vehicle id = "veh_70" type = "bus" route = "rou_105" depart = "70.000000" />
		<vehicle id = "veh_71" type = "passenger" route = "rou_95" depart = "71.000000" />
		<vehicle id = "veh_72" type = "passenger" route = "rou_50" depart = "72.000000" />
		<vehicle id = "veh_73" type = "transport" route = "rou_70" depart = "73.000000" />
		<vehicle id = "veh_74" type = "passenger" route = "rou_111" depart = "74.000000" />
		<vehicle id = "veh_75" type = "passenger" route = "rou_80" depart = "75.000000" />
		<vehicle id = "veh_76" type = "passenger" route = "rou_92" depart = "76.000000" />
		<vehicle id = "veh_77" type = "emergency" route = "rou_91" depart = "77.000000" />
		<vehicle id = "veh_78" type = "bus" route = "rou_84" depart = "78.000000" />
		<vehicle id = "veh_79" type = "bus" route = "rou_46" depart = "79.000000" />
		<vehicle id = "veh_80" type = "passenger" route = "rou_76" depart = "80.000000" />
		<vehicle id = "veh_81" type = "emergency" route = "rou_31" depart = "81.000000" />
		<vehicle id = "veh_82" type = "transport" route = "rou_82" depart = "82.000000" />
		<vehicle id = "veh_83" type = "bus" route = "rou_91" depart = "83.000000" />
		<vehicle id = "veh_84" type = "emergency" route = "rou_30" depart = "84.000000" />
		<vehicle id = "veh_85" type = "emergency" route = "rou_5" depart = "85.000000" />
		<vehicle id = "veh_86" type = "passenger" route = "rou_111" depart = "86.000000" />
		<vehicle id = "veh_87" type = "bus" route = "rou_39" depart = "87.000000" />
		<vehicle id = "veh_88" type = "bus" route = "rou_34" depart = "88.000000" />
		<vehicle id = "veh_89" type = "passenger" route = "rou_47" depart = "89.000000" />
		<vehicle id = "veh_90" type = "passenger" route = "rou_1" depart = "90.000000" />
		<vehicle id = "veh_91" type = "bus" route = "rou_29" depart = "91.000000" />
		<vehicle id = "veh_92" type = "bus" route = "rou_95" depart = "92.000000" />
		<vehicle id = "veh_93" type = "passenger" route = "rou_21" depart = "93.000000" />
		<vehicle id = "veh_94" type = "transport" route = "rou_95" depart = "94.000000" />
		<vehicle id = "veh_95" type = "emergency" route = "rou_93" depart = "95.000000" />
		<vehicle id = "veh_96" type = "passenger" route = "rou_108" depart = "96.000000" />
		<vehicle id = "veh_97" type = "transport" route = "rou_70" depart = "97.000000" />
		<vehicle id = "veh_98" type = "emergency" route = "rou_6" depart = "98.000000" />
		<vehicle id = "veh_99" type = "emergency" route = "rou_75" depart = "99.000000" />
		<vehicle id = "veh_100" type = "transport" route = "rou_22" depart = "100.000000" />
		<vehicle id = "veh_101" type = "transport" route = "rou_34" depart = "101.000000" />
		<vehicle id = "veh_102" type = "bus" route = "rou_24" depart = "102.000000" />
		<vehicle id = "veh_103" type = "emergency" route = "rou_45" depart = "103.000000" />
		<vehicle id = "veh_104" type = "passenger" route = "rou_106" depart = "104.000000" />
		<vehicle id = "veh_105" type = "emergency" route = "rou_16" depart = "105.000000" />
		<vehicle id = "veh_106" type = "passenger" route = "rou_10" depart = "106.000000" />
		<vehicle id = "veh_107" type = "bus" route = "rou_93" depart = "107.000000" />
		<vehicle id = "veh_108" type = "bus" route = "rou_66" depart = "108.000000" />
		<vehicle id = "veh_109" type = "bus" route = "rou_59" depart = "109.000000" />
		<vehicle id = "veh_110" type = "transport" route = "rou_9" depart = "110.000000" />
		<vehicle id = "veh_111" type = "bus" route = "rou_14" depart = "111.000000" />
		<vehicle id = "veh_112" type = "transport" route = "rou_101" depart = "112.000000" />
</routes>
