<?xml version="1.0" encoding="UTF-8"?>
	<routes xmlns:xsi="http://www.w3.org/2001/XMLSchema-instance" xsi:noNamespaceSchemaLocation="Data/GridNetwork/GridNetwork.rou.xml">
	
		<vType id = "passenger" accel = "0.800000"	decel = "4.500000" minGap = "2.500000" sigma = "0.500000" color = "1,1,0" length = "5.000000" maxSpeed = "16.670000" guiShape = "passenger"		/>
		<vType id = "emergency" accel = "1.000000"	decel = "5.500000" minGap = "2.500000" sigma = "0.700000" color = "1,0,0" length = "7.000000" maxSpeed = "30.000000" guiShape = "passenger/van"		/>
		<vType id = "transport" accel = "0.800000"	decel = "4.500000" minGap = "3.000000" sigma = "0.500000" color = "0,0,1" length = "10.000000" maxSpeed = "25.000000" guiShape = "transport"		/>
		<vType id = "bus" accel = "0.800000"	decel = "4.500000" minGap = "3.000000" sigma = "0.500000" color = "0,1,0" length = "10.000000" maxSpeed = "25.000000" guiShape = "bus"		/>
		<route	id = "rou_0" edges ="edg_2_4_W edg_2_3_S edg_3_3_S "	/>
		<route	id = "rou_1" edges ="edg_1_0_E edg_1_1_W "	/>
		<route	id = "rou_2" edges ="edg_0_1_S edg_1_1_W "	/>
		<route	id = "rou_3" edges ="edg_4_3_N edg_3_3_E "	/>
		<route	id = "rou_4" edges ="edg_2_4_W edg_2_3_E "	/>
		<route	id = "rou_5" edges ="edg_3_0_E edg_3_1_E edg_3_2_E edg_3_3_N edg_2_3_E "	/>
		<route	id = "rou_6" edges ="edg_3_0_E edg_3_1_N edg_2_1_W "	/>
		<route	id = "rou_7" edges ="edg_3_0_E edg_3_1_W "	/>
		<route	id = "rou_8" edges ="edg_4_3_N edg_3_3_E "	/>
		<route	id = "rou_9" edges ="edg_4_2_N edg_3_2_W edg_3_1_S "	/>
		<route	id = "rou_10" edges ="edg_0_2_S edg_1_2_W edg_1_1_N "	/>
		<route	id = "rou_11" edges ="edg_3_0_E edg_3_1_W "	/>
		<route	id = "rou_12" edges ="edg_1_0_E edg_1_1_S edg_2_1_N edg_1_1_W "	/>
		<route	id = "rou_13" edges ="edg_0_2_S edg_1_2_N "	/>
		<route	id = "rou_14" edges ="edg_3_4_W edg_3_3_E "	/>
		<route	id = "rou_15" edges ="edg_4_3_N edg_3_3_N edg_2_3_N edg_1_3_S edg_2_3_W edg_2_2_N edg_1_2_E edg_1_3_E "	/>
		<route	id = "rou_16" edges ="edg_4_3_N edg_3_3_E "	/>
		<route	id = "rou_17" edges ="edg_4_3_N edg_3_3_W edg_3_2_S "	/>
		<route	id = "rou_18" edges ="edg_3_0_E edg_3_1_S "	/>
		<route	id = "rou_19" edges ="edg_0_1_S edg_1_1_E edg_1_2_S edg_2_2_W edg_2_1_N edg_1_1_N "	/>
		<route	id = "rou_20" edges ="edg_4_3_N edg_3_3_N edg_2_3_N edg_1_3_W edg_1_2_E edg_1_3_E "	/>
		<route	id = "rou_21" edges ="edg_0_3_S edg_1_3_N "	/>
		<route	id = "rou_22" edges ="edg_1_4_W edg_1_3_E "	/>
		<route	id = "rou_23" edges ="edg_4_1_N edg_3_1_S "	/>
		<route	id = "rou_24" edges ="edg_0_3_S edg_1_3_S edg_2_3_S edg_3_3_E "	/>
		<route	id = "rou_25" edges ="edg_0_3_S edg_1_3_N "	/>
		<route	id = "rou_26" edges ="edg_4_2_N edg_3_2_W edg_3_1_N edg_2_1_W "	/>
		<route	id = "rou_27" edges ="edg_0_1_S edg_1_1_N "	/>
		<route	id = "rou_28" edges ="edg_1_4_W edg_1_3_E "	/>
		<route	id = "rou_29" edges ="edg_2_4_W edg_2_3_W edg_2_2_S edg_3_2_E edg_3_3_W edg_3_2_N edg_2_2_E edg_2_3_S edg_3_3_N edg_2_3_N edg_1_3_N "	/>
		<route	id = "rou_30" edges ="edg_4_1_N edg_3_1_S "	/>
		<route	id = "rou_31" edges ="edg_4_1_N edg_3_1_E edg_3_2_N edg_2_2_E edg_2_3_S edg_3_3_W edg_3_2_S "	/>
		<route	id = "rou_32" edges ="edg_3_0_E edg_3_1_W "	/>
		<route	id = "rou_33" edges ="edg_3_4_W edg_3_3_N edg_2_3_E "	/>
		<route	id = "rou_34" edges ="edg_4_1_N edg_3_1_W "	/>
		<route	id = "rou_35" edges ="edg_1_0_E edg_1_1_S edg_2_1_W "	/>
		<route	id = "rou_36" edges ="edg_4_2_N edg_3_2_E edg_3_3_N edg_2_3_E "	/>
		<route	id = "rou_37" edges ="edg_0_1_S edg_1_1_N "	/>
		<route	id = "rou_38" edges ="edg_4_2_N edg_3_2_N edg_2_2_N edg_1_2_S edg_2_2_S edg_3_2_N edg_2_2_N edg_1_2_W edg_1_1_N "	/>
		<route	id = "rou_39" edges ="edg_4_1_N edg_3_1_W "	/>
		<route	id = "rou_40" edges ="edg_2_0_E edg_2_1_S edg_3_1_W "	/>
		<route	id = "rou_41" edges ="edg_0_1_S edg_1_1_S edg_2_1_S edg_3_1_N edg_2_1_E edg_2_2_W edg_2_1_N edg_1_1_E edg_1_2_S edg_2_2_E edg_2_3_N edg_1_3_W edg_1_2_W edg_1_1_S edg_2_1_N edg_1_1_S edg_2_1_E edg_2_2_E edg_2_3_S edg_3_3_N edg_2_3_E "	/>
		<route	id = "rou_42" edges ="edg_4_1_N edg_3_1_E edg_3_2_E edg_3_3_N edg_2_3_N edg_1_3_E "	/>
		<route	id = "rou_43" edges ="edg_0_2_S edg_1_2_S edg_2_2_W edg_2_1_N edg_1_1_S edg_2_1_N edg_1_1_N "	/>
		<route	id = "rou_44" edges ="edg_4_3_N edg_3_3_W edg_3_2_N edg_2_2_W edg_2_1_S edg_3_1_S "	/>
		<route	id = "rou_45" edges ="edg_0_2_S edg_1_2_S edg_2_2_S edg_3_2_E edg_3_3_W edg_3_2_N edg_2_2_S edg_3_2_S "	/>
		<route	id = "rou_46" edges ="edg_0_1_S edg_1_1_W "	/>
		<route	id = "rou_47" edges ="edg_0_2_S edg_1_2_S edg_2_2_W edg_2_1_E edg_2_2_W edg_2_1_S edg_3_1_S "	/>
		<route	id = "rou_48" edges ="edg_1_4_W edg_1_3_E "	/>
		<route	id = "rou_49" edges ="edg_4_3_N edg_3_3_W edg_3_2_S "	/>
		<route	id = "rou_50" edges ="edg_0_2_S edg_1_2_E edg_1_3_W edg_1_2_N "	/>
		<route	id = "rou_51" edges ="edg_1_4_W edg_1_3_N "	/>
		<route	id = "rou_52" edges ="edg_0_3_S edg_1_3_S edg_2_3_S edg_3_3_W edg_3_2_S "	/>
		<route	id = "rou_53" edges ="edg_1_0_E edg_1_1_W "	/>
		<route	id = "rou_54" edges ="edg_3_0_E edg_3_1_N edg_2_1_W "	/>
		<route	id = "rou_55" edges ="edg_3_0_E edg_3_1_S "	/>
		<route	id = "rou_56" edges ="edg_0_1_S edg_1_1_E edg_1_2_N "	/>
		<route	id = "rou_57" edges ="edg_4_1_N edg_3_1_E edg_3_2_N edg_2_2_E edg_2_3_N edg_1_3_S edg_2_3_W edg_2_2_N edg_1_2_E edg_1_3_N "	/>
		<route	id = "rou_58" edges ="edg_4_2_N edg_3_2_W edg_3_1_N edg_2_1_N edg_1_1_S edg_2_1_E edg_2_2_W edg_2_1_W "	/>
		<route	id = "rou_59" edges ="edg_0_2_S edg_1_2_E edg_1_3_W edg_1_2_S edg_2_2_N edg_1_2_N "	/>
		<route	id = "rou_60" edges ="edg_4_2_N edg_3_2_W edg_3_1_S "	/>
		<route	id = "rou_61" edges ="edg_3_4_W edg_3_3_N edg_2_3_S edg_3_3_E "	/>
		<route	id = "rou_62" edges ="edg_4_2_N edg_3_2_S "	/>
		<route	id = "rou_63" edges ="edg_1_0_E edg_1_1_S edg_2_1_N edg_1_1_W "	/>
		<route	id = "rou_64" edges ="edg_0_1_S edg_1_1_N "	/>
		<route	id = "rou_65" edges ="edg_0_1_S edg_1_1_E edg_1_2_N "	/>
		<route	id = "rou_66" edges ="edg_2_4_W edg_2_3_E "	/>
		<route	id = "rou_67" edges ="edg_1_4_W edg_1_3_E "	/>
		<route	id = "rou_68" edges ="edg_0_2_S edg_1_2_N "	/>
		<route	id = "rou_69" edges ="edg_0_2_S edg_1_2_W edg_1_1_N "	/>
		<route	id = "rou_70" edges ="edg_0_3_S edg_1_3_W edg_1_2_E edg_1_3_W edg_1_2_S edg_2_2_W edg_2_1_S edg_3_1_S "	/>
		<route	id = "rou_71" edges ="edg_2_0_E edg_2_1_E edg_2_2_E edg_2_3_W edg_2_2_W edg_2_1_S edg_3_1_N edg_2_1_S edg_3_1_S "	/>
		<route	id = "rou_72" edges ="edg_2_4_W edg_2_3_N edg_1_3_S edg_2_3_E "	/>
		<route	id = "rou_73" edges ="edg_2_0_E edg_2_1_N edg_1_1_N "	/>
		<route	id = "rou_74" edges ="edg_0_3_S edg_1_3_N "	/>
		<route	id = "rou_75" edges ="edg_2_4_W edg_2_3_W edg_2_2_S edg_3_2_W edg_3_1_W "	/>
		<route	id = "rou_76" edges ="edg_3_4_W edg_3_3_E "	/>
		<route	id = "rou_77" edges ="edg_3_4_W edg_3_3_E "	/>
		<route	id = "rou_78" edges ="edg_2_0_E edg_2_1_W "	/>
		<route	id = "rou_79" edges ="edg_0_2_S edg_1_2_S edg_2_2_E edg_2_3_E "	/>
		<route	id = "rou_80" edges ="edg_1_4_W edg_1_3_W edg_1_2_N "	/>
		<route	id = "rou_81" edges ="edg_2_0_E edg_2_1_W "	/>
		<route	id = "rou_82" edges ="edg_4_3_N edg_3_3_E "	/>
		<route	id = "rou_83" edges ="edg_1_4_W edg_1_3_E "	/>
		<route	id = "rou_84" edges ="edg_4_1_N edg_3_1_E edg_3_2_S "	/>
		<route	id = "rou_85" edges ="edg_2_0_E edg_2_1_W "	/>
		<route	id = "rou_86" edges ="edg_0_3_S edg_1_3_N "	/>
		<route	id = "rou_87" edges ="edg_0_1_S edg_1_1_S edg_2_1_W "	/>
		<route	id = "rou_88" edges ="edg_4_1_N edg_3_1_S "	/>
		<route	id = "rou_89" edges ="edg_4_2_N edg_3_2_E edg_3_3_N edg_2_3_E "	/>
		<route	id = "rou_90" edges ="edg_0_3_S edg_1_3_W edg_1_2_N "	/>
		<route	id = "rou_91" edges ="edg_0_2_S edg_1_2_S edg_2_2_S edg_3_2_N edg_2_2_S edg_3_2_N edg_2_2_E edg_2_3_S edg_3_3_S "	/>
		<route	id = "rou_92" edges ="edg_3_4_W edg_3_3_N edg_2_3_W edg_2_2_W edg_2_1_N edg_1_1_W "	/>
		<route	id = "rou_93" edges ="edg_2_0_E edg_2_1_N edg_1_1_N "	/>
		<route	id = "rou_94" edges ="edg_0_3_S edg_1_3_W edg_1_2_W edg_1_1_E edg_1_2_S edg_2_2_W edg_2_1_W "	/>
		<route	id = "rou_95" edges ="edg_0_3_S edg_1_3_E "	/>
		<route	id = "rou_96" edges ="edg_4_3_N edg_3_3_W edg_3_2_N edg_2_2_W edg_2_1_E edg_2_2_W edg_2_1_W "	/>
		<route	id = "rou_97" edges ="edg_2_4_W edg_2_3_W edg_2_2_W edg_2_1_W "	/>
		<route	id = "rou_98" edges ="edg_2_0_E edg_2_1_W "	/>
		<route	id = "rou_99" edges ="edg_4_1_N edg_3_1_N edg_2_1_W "	/>
		<route	id = "rou_100" edges ="edg_0_1_S edg_1_1_E edg_1_2_E edg_1_3_E "	/>
		<route	id = "rou_101" edges ="edg_1_0_E edg_1_1_N "	/>
		<route	id = "rou_102" edges ="edg_4_1_N edg_3_1_W "	/>
		<route	id = "rou_103" edges ="edg_0_2_S edg_1_2_W edg_1_1_S edg_2_1_E edg_2_2_N edg_1_2_W edg_1_1_E edg_1_2_E edg_1_3_W edg_1_2_S edg_2_2_S edg_3_2_S "	/>
		<route	id = "rou_104" edges ="edg_4_1_N edg_3_1_W "	/>
		<route	id = "rou_105" edges ="edg_0_3_S edg_1_3_W edg_1_2_S edg_2_2_E edg_2_3_W edg_2_2_E edg_2_3_S edg_3_3_W edg_3_2_S "	/>
		<route	id = "rou_106" edges ="edg_1_4_W edg_1_3_W edg_1_2_N "	/>
		<route	id = "rou_107" edges ="edg_2_4_W edg_2_3_W edg_2_2_E edg_2_3_S edg_3_3_N edg_2_3_N edg_1_3_N "	/>
		<route	id = "rou_108" edges ="edg_1_4_W edg_1_3_N "	/>
		<route	id = "rou_109" edges ="edg_1_4_W edg_1_3_W edg_1_2_W edg_1_1_E edg_1_2_W edg_1_1_E edg_1_2_S edg_2_2_W edg_2_1_W "	/>
		<route	id = "rou_110" edges ="edg_3_4_W edg_3_3_N edg_2_3_E "	/>
		<route	id = "rou_111" edges ="edg_3_0_E edg_3_1_E edg_3_2_E edg_3_3_E "	/>
		<route	id = "rou_112" edges ="edg_4_3_N edg_3_3_N edg_2_3_E "	/>
		<route	id = "rou_113" edges ="edg_1_0_E edg_1_1_W "	/>
		<route	id = "rou_114" edges ="edg_0_1_S edg_1_1_W "	/>
		<route	id = "rou_115" edges ="edg_0_2_S edg_1_2_S edg_2_2_E edg_2_3_E "	/>
		<route	id = "rou_116" edges ="edg_4_2_N edg_3_2_E edg_3_3_E "	/>
		<route	id = "rou_117" edges ="edg_1_4_W edg_1_3_E "	/>
		<route	id = "rou_118" edges ="edg_3_0_E edg_3_1_N edg_2_1_W "	/>
		<route	id = "rou_119" edges ="edg_4_1_N edg_3_1_E edg_3_2_E edg_3_3_S "	/>
		<route	id = "rou_120" edges ="edg_0_2_S edg_1_2_W edg_1_1_N "	/>
		<route	id = "rou_121" edges ="edg_1_0_E edg_1_1_E edg_1_2_W edg_1_1_W "	/>
		<route	id = "rou_122" edges ="edg_0_2_S edg_1_2_S edg_2_2_S edg_3_2_N edg_2_2_S edg_3_2_S "	/>
		<route	id = "rou_123" edges ="edg_0_2_S edg_1_2_E edg_1_3_N "	/>
		<route	id = "rou_124" edges ="edg_4_2_N edg_3_2_N edg_2_2_W edg_2_1_W "	/>
		<route	id = "rou_125" edges ="edg_2_0_E edg_2_1_E edg_2_2_E edg_2_3_W edg_2_2_E edg_2_3_N edg_1_3_W edg_1_2_N "	/>
		<route	id = "rou_126" edges ="edg_0_2_S edg_1_2_S edg_2_2_E edg_2_3_S edg_3_3_N edg_2_3_S edg_3_3_W edg_3_2_W edg_3_1_N edg_2_1_N edg_1_1_E edg_1_2_E edg_1_3_W edg_1_2_N "	/>
		<route	id = "rou_127" edges ="edg_0_3_S edg_1_3_S edg_2_3_S edg_3_3_N edg_2_3_N edg_1_3_S edg_2_3_W edg_2_2_S edg_3_2_S "	/>
		<route	id = "rou_128" edges ="edg_1_0_E edg_1_1_S edg_2_1_E edg_2_2_E edg_2_3_W edg_2_2_N edg_1_2_N "	/>
		<route	id = "rou_129" edges ="edg_4_1_N edg_3_1_S "	/>
		<route	id = "rou_130" edges ="edg_4_1_N edg_3_1_E edg_3_2_E edg_3_3_E "	/>
		<route	id = "rou_131" edges ="edg_3_0_E edg_3_1_W "	/>
		<route	id = "rou_132" edges ="edg_1_4_W edg_1_3_S edg_2_3_W edg_2_2_S edg_3_2_E edg_3_3_E "	/>
		<route	id = "rou_133" edges ="edg_0_3_S edg_1_3_N "	/>
		<route	id = "rou_134" edges ="edg_1_0_E edg_1_1_W "	/>
		<route	id = "rou_135" edges ="edg_3_4_W edg_3_3_N edg_2_3_N edg_1_3_W edg_1_2_W edg_1_1_W "	/>
		<route	id = "rou_136" edges ="edg_2_0_E edg_2_1_N edg_1_1_N "	/>
		<route	id = "rou_137" edges ="edg_1_0_E edg_1_1_N "	/>
		<route	id = "rou_138" edges ="edg_0_3_S edg_1_3_E "	/>
		<route	id = "rou_139" edges ="edg_3_0_E edg_3_1_W "	/>
		<route	id = "rou_140" edges ="edg_3_4_W edg_3_3_N edg_2_3_S edg_3_3_E "	/>
		<route	id = "rou_141" edges ="edg_0_2_S edg_1_2_N "	/>
		<route	id = "rou_142" edges ="edg_4_2_N edg_3_2_N edg_2_2_W edg_2_1_W "	/>
		<route	id = "rou_143" edges ="edg_1_4_W edg_1_3_S edg_2_3_E "	/>
		<route	id = "rou_144" edges ="edg_2_0_E edg_2_1_W "	/>
		<route	id = "rou_145" edges ="edg_4_2_N edg_3_2_N edg_2_2_W edg_2_1_W "	/>
		<route	id = "rou_146" edges ="edg_1_0_E edg_1_1_E edg_1_2_S edg_2_2_W edg_2_1_E edg_2_2_N edg_1_2_E edg_1_3_N "	/>
		<route	id = "rou_147" edges ="edg_1_0_E edg_1_1_E edg_1_2_S edg_2_2_N edg_1_2_S edg_2_2_S edg_3_2_E edg_3_3_W edg_3_2_E edg_3_3_N edg_2_3_S edg_3_3_W edg_3_2_S "	/>
		<route	id = "rou_148" edges ="edg_0_2_S edg_1_2_N "	/>
		<route	id = "rou_149" edges ="edg_4_3_N edg_3_3_W edg_3_2_W edg_3_1_W "	/>
		<route	id = "rou_150" edges ="edg_2_0_E edg_2_1_N edg_1_1_N "	/>
		<route	id = "rou_151" edges ="edg_4_2_N edg_3_2_S "	/>
		<route	id = "rou_152" edges ="edg_1_4_W edg_1_3_S edg_2_3_E "	/>
		<route	id = "rou_153" edges ="edg_2_4_W edg_2_3_N edg_1_3_E "	/>
		<route	id = "rou_154" edges ="edg_1_4_W edg_1_3_N "	/>
		<route	id = "rou_155" edges ="edg_0_3_S edg_1_3_W edg_1_2_N "	/>
		<route	id = "rou_156" edges ="edg_1_0_E edg_1_1_E edg_1_2_W edg_1_1_N "	/>
		<route	id = "rou_157" edges ="edg_4_1_N edg_3_1_S "	/>
		<route	id = "rou_158" edges ="edg_3_0_E edg_3_1_E edg_3_2_E edg_3_3_N edg_2_3_E "	/>
		<route	id = "rou_159" edges ="edg_0_3_S edg_1_3_W edg_1_2_W edg_1_1_E edg_1_2_N "	/>
		<route	id = "rou_160" edges ="edg_4_1_N edg_3_1_E edg_3_2_N edg_2_2_S edg_3_2_N edg_2_2_S edg_3_2_N edg_2_2_S edg_3_2_E edg_3_3_N edg_2_3_N edg_1_3_N "	/>
		<route	id = "rou_161" edges ="edg_3_0_E edg_3_1_S "	/>
		<route	id = "rou_162" edges ="edg_4_1_N edg_3_1_N edg_2_1_N edg_1_1_S edg_2_1_W "	/>
		<route	id = "rou_163" edges ="edg_4_2_N edg_3_2_S "	/>
		<route	id = "rou_164" edges ="edg_4_2_N edg_3_2_S "	/>
		<route	id = "rou_165" edges ="edg_4_2_N edg_3_2_E edg_3_3_N edg_2_3_E "	/>
		<route	id = "rou_166" edges ="edg_3_0_E edg_3_1_E edg_3_2_N edg_2_2_N edg_1_2_N "	/>
		<route	id = "rou_167" edges ="edg_4_1_N edg_3_1_E edg_3_2_S "	/>
		<route	id = "rou_168" edges ="edg_3_4_W edg_3_3_E "	/>
		<route	id = "rou_169" edges ="edg_3_0_E edg_3_1_N edg_2_1_W "	/>
		<route	id = "rou_170" edges ="edg_4_3_N edg_3_3_W edg_3_2_E edg_3_3_S "	/>
		<route	id = "rou_171" edges ="edg_3_0_E edg_3_1_S "	/>
		<route	id = "rou_172" edges ="edg_3_0_E edg_3_1_S "	/>
		<route	id = "rou_173" edges ="edg_1_0_E edg_1_1_E edg_1_2_N "	/>
		<route	id = "rou_174" edges ="edg_3_0_E edg_3_1_S "	/>
		<route	id = "rou_175" edges ="edg_4_3_N edg_3_3_E "	/>
		<route	id = "rou_176" edges ="edg_4_1_N edg_3_1_E edg_3_2_S "	/>
		<route	id = "rou_177" edges ="edg_4_1_N edg_3_1_N edg_2_1_N edg_1_1_E edg_1_2_S edg_2_2_S edg_3_2_S "	/>
		<route	id = "rou_178" edges ="edg_1_4_W edg_1_3_W edg_1_2_E edg_1_3_N "	/>
		<route	id = "rou_179" edges ="edg_0_1_S edg_1_1_W "	/>
		<route	id = "rou_180" edges ="edg_1_0_E edg_1_1_W "	/>
		<route	id = "rou_181" edges ="edg_0_1_S edg_1_1_E edg_1_2_W edg_1_1_W "	/>
		<route	id = "rou_182" edges ="edg_1_0_E edg_1_1_E edg_1_2_N "	/>
		<route	id = "rou_183" edges ="edg_0_2_S edg_1_2_N "	/>
		<route	id = "rou_184" edges ="edg_0_1_S edg_1_1_S edg_2_1_N edg_1_1_N "	/>
		<route	id = "rou_185" edges ="edg_3_4_W edg_3_3_W edg_3_2_S "	/>
		<route	id = "rou_186" edges ="edg_0_3_S edg_1_3_S edg_2_3_E "	/>
		<route	id = "rou_187" edges ="edg_2_0_E edg_2_1_E edg_2_2_N edg_1_2_W edg_1_1_S edg_2_1_W "	/>
		<route	id = "rou_188" edges ="edg_2_4_W edg_2_3_W edg_2_2_W edg_2_1_E edg_2_2_S edg_3_2_N edg_2_2_S edg_3_2_N edg_2_2_E edg_2_3_N edg_1_3_E "	/>
		<route	id = "rou_189" edges ="edg_4_3_N edg_3_3_W edg_3_2_N edg_2_2_S edg_3_2_S "	/>
		<route	id = "rou_190" edges ="edg_0_3_S edg_1_3_N "	/>
		<route	id = "rou_191" edges ="edg_4_2_N edg_3_2_E edg_3_3_W edg_3_2_S "	/>
		<route	id = "rou_192" edges ="edg_4_3_N edg_3_3_N edg_2_3_N edg_1_3_S edg_2_3_S edg_3_3_N edg_2_3_E "	/>
		<route	id = "rou_193" edges ="edg_3_0_E edg_3_1_E edg_3_2_N edg_2_2_E edg_2_3_W edg_2_2_W edg_2_1_N edg_1_1_S edg_2_1_E edg_2_2_E edg_2_3_N edg_1_3_S edg_2_3_W edg_2_2_N edg_1_2_N "	/>
		<route	id = "rou_194" edges ="edg_4_2_N edg_3_2_E edg_3_3_N edg_2_3_E "	/>
		<route	id = "rou_195" edges ="edg_2_0_E edg_2_1_N edg_1_1_W "	/>
		<route	id = "rou_196" edges ="edg_0_2_S edg_1_2_W edg_1_1_S edg_2_1_N edg_1_1_E edg_1_2_W edg_1_1_N "	/>
		<route	id = "rou_197" edges ="edg_1_0_E edg_1_1_N "	/>
		<route	id = "rou_198" edges ="edg_3_0_E edg_3_1_S "	/>
		<route	id = "rou_199" edges ="edg_4_1_N edg_3_1_W "	/>
		<vehicle id = "veh_0" type = "bus" route = "rou_151" depart = "0.000000" />
		<vehicle id = "veh_1" type = "bus" route = "rou_149" depart = "1.000000" />
		<vehicle id = "veh_2" type = "emergency" route = "rou_40" depart = "2.000000" />
		<vehicle id = "veh_3" type = "transport" route = "rou_120" depart = "3.000000" />
		<vehicle id = "veh_4" type = "transport" route = "rou_44" depart = "4.000000" />
		<vehicle id = "veh_5" type = "passenger" route = "rou_113" depart = "5.000000" />
		<vehicle id = "veh_6" type = "transport" route = "rou_108" depart = "6.000000" />
		<vehicle id = "veh_7" type = "transport" route = "rou_144" depart = "7.000000" />
		<vehicle id = "veh_8" type = "passenger" route = "rou_31" depart = "8.000000" />
		<vehicle id = "veh_9" type = "passenger" route = "rou_106" depart = "9.000000" />
		<vehicle id = "veh_10" type = "emergency" route = "rou_151" depart = "10.000000" />
		<vehicle id = "veh_11" type = "bus" route = "rou_141" depart = "11.000000" />
		<vehicle id = "veh_12" type = "passenger" route = "rou_46" depart = "12.000000" />
		<vehicle id = "veh_13" type = "emergency" route = "rou_120" depart = "13.000000" />
		<vehicle id = "veh_14" type = "passenger" route = "rou_186" depart = "14.000000" />
		<vehicle id = "veh_15" type = "transport" route = "rou_56" depart = "15.000000" />
		<vehicle id = "veh_16" type = "transport" route = "rou_107" depart = "16.000000" />
		<vehicle id = "veh_17" type = "bus" route = "rou_163" depart = "17.000000" />
		<vehicle id = "veh_18" type = "emergency" route = "rou_160" depart = "18.000000" />
		<vehicle id = "veh_19" type = "transport" route = "rou_64" depart = "19.000000" />
		<vehicle id = "veh_20" type = "transport" route = "rou_188" depart = "20.000000" />
		<vehicle id = "veh_21" type = "passenger" route = "rou_62" depart = "21.000000" />
		<vehicle id = "veh_22" type = "emergency" route = "rou_173" depart = "22.000000" />
		<vehicle id = "veh_23" type = "passenger" route = "rou_118" depart = "23.000000" />
		<vehicle id = "veh_24" type = "transport" route = "rou_47" depart = "24.000000" />
		<vehicle id = "veh_25" type = "emergency" route = "rou_41" depart = "25.000000" />
		<vehicle id = "veh_26" type = "passenger" route = "rou_117" depart = "26.000000" />
		<vehicle id = "veh_27" type = "bus" route = "rou_31" depart = "27.000000" />
		<vehicle id = "veh_28" type = "passenger" route = "rou_44" depart = "28.000000" />
		<vehicle id = "veh_29" type = "passenger" route = "rou_190" depart = "29.000000" />
		<vehicle id = "veh_30" type = "emergency" route = "rou_186" depart = "30.000000" />
		<vehicle id = "veh_31" type = "passenger" route = "rou_172" depart = "31.000000" />
		<vehicle id = "veh_32" type = "bus" route = "rou_36" depart = "32.000000" />
		<vehicle id = "veh_33" type = "bus" route = "rou_184" depart = "33.000000" />
		<vehicle id = "veh_34" type = "emergency" route = "rou_34" depart = "34.000000" />
		<vehicle id = "veh_35" type = "passenger" route = "rou_23" depart = "35.000000" />
		<vehicle id = "veh_36" type = "emergency" route = "rou_6" depart = "36.000000" />
		<vehicle id = "veh_37" type = "emergency" route = "rou_116" depart = "37.000000" />
		<vehicle id = "veh_38" type = "bus" route = "rou_66" depart = "38.000000" />
		<vehicle id = "veh_39" type = "passenger" route = "rou_76" depart = "39.000000" />
		<vehicle id = "veh_40" type = "transport" route = "rou_192" depart = "40.000000" />
		<vehicle id = "veh_41" type = "emergency" route = "rou_174" depart = "41.000000" />
		<vehicle id = "veh_42" type = "emergency" route = "rou_157" depart = "42.000000" />
		<vehicle id = "veh_43" type = "transport" route = "rou_20" depart = "43.000000" />
		<vehicle id = "veh_44" type = "passenger" route = "rou_198" depart = "44.000000" />
		<vehicle id = "veh_45" type = "passenger" route = "rou_174" depart = "45.000000" />
		<vehicle id = "veh_46" type = "emergency" route = "rou_176" depart = "46.000000" />
		<vehicle id = "veh_47" type = "bus" route = "rou_41" depart = "47.000000" />
		<vehicle id = "veh_48" type = "bus" route = "rou_95" depart = "48.000000" />
		<vehicle id = "veh_49" type = "passenger" route = "rou_82" depart = "49.000000" />
		<vehicle id = "veh_50" type = "emergency" route = "rou_169" depart = "50.000000" />
		<vehicle id = "veh_51" type = "bus" route = "rou_120" depart = "51.000000" />
		<vehicle id = "veh_52" type = "passenger" route = "rou_164" depart = "52.000000" />
		<vehicle id = "veh_53" type = "passenger" route = "rou_98" depart = "53.000000" />
		<vehicle id = "veh_54" type = "emergency" route = "rou_174" depart = "54.000000" />
		<vehicle id = "veh_55" type = "bus" route = "rou_131" depart = "55.000000" />
		<vehicle id = "veh_56" type = "passenger" route = "rou_40" depart = "56.000000" />
		<vehicle id = "veh_57" type = "bus" route = "rou_95" depart = "57.000000" />
		<vehicle id = "veh_58" type = "transport" route = "rou_122" depart = "58.000000" />
		<vehicle id = "veh_59" type = "passenger" route = "rou_140" depart = "59.000000" />
		<vehicle id = "veh_60" type = "emergency" route = "rou_183" depart = "60.000000" />
		<vehicle id = "veh_61" type = "bus" route = "rou_174" depart = "61.000000" />
		<vehicle id = "veh_62" type = "passenger" route = "rou_109" depart = "62.000000" />
		<vehicle id = "veh_63" type = "emergency" route = "rou_186" depart = "63.000000" />
		<vehicle id = "veh_64" type = "passenger" route = "rou_188" depart = "64.000000" />
		<vehicle id = "veh_65" type = "emergency" route = "rou_70" depart = "65.000000" />
		<vehicle id = "veh_66" type = "bus" route = "rou_123" depart = "66.000000" />
		<vehicle id = "veh_67" type = "bus" route = "rou_191" depart = "67.000000" />
		<vehicle id = "veh_68" type = "bus" route = "rou_117" depart = "68.000000" />
		<vehicle id = "veh_69" type = "passenger" route = "rou_107" depart = "69.000000" />
		<vehicle id = "veh_70" type = "passenger" route = "rou_146" depart = "70.000000" />
		<vehicle id = "veh_71" type = "emergency" route = "rou_134" depart = "71.000000" />
		<vehicle id = "veh_72" type = "emergency" route = "rou_72" depart = "72.000000" />
		<vehicle id = "veh_73" type = "passenger" route = "rou_100" depart = "73.000000" />
		<vehicle id = "veh_74" type = "passenger" route = "rou_80" depart = "74.000000" />
		<vehicle id = "veh_75" type = "transport" route = "rou_102" depart = "75.000000" />
		<vehicle id = "veh_76" type = "emergency" route = "rou_23" depart = "76.000000" />
		<vehicle id = "veh_77" type = "passenger" route = "rou_73" depart = "77.000000" />
		<vehicle id = "veh_78" type = "transport" route = "rou_107" depart = "78.000000" />
		<vehicle id = "veh_79" type = "emergency" route = "rou_105" depart = "79.000000" />
		<vehicle id = "veh_80" type = "transport" route = "rou_141" depart = "80.000000" />
		<vehicle id = "veh_81" type = "bus" route = "rou_151" depart = "81.000000" />
		<vehicle id = "veh_82" type = "bus" route = "rou_198" depart = "82.000000" />
		<vehicle id = "veh_83" type = "bus" route = "rou_19" depart = "83.000000" />
		<vehicle id = "veh_84" type = "transport" route = "rou_48" depart = "84.000000" />
		<vehicle id = "veh_85" type = "bus" route = "rou_175" depart = "85.000000" />
		<vehicle id = "veh_86" type = "bus" route = "rou_68" depart = "86.000000" />
		<vehicle id = "veh_87" type = "passenger" route = "rou_77" depart = "87.000000" />
		<vehicle id = "veh_88" type = "bus" route = "rou_107" depart = "88.000000" />
		<vehicle id = "veh_89" type = "passenger" route = "rou_153" depart = "89.000000" />
		<vehicle id = "veh_90" type = "passenger" route = "rou_126" depart = "90.000000" />
		<vehicle id = "veh_91" type = "emergency" route = "rou_115" depart = "91.000000" />
		<vehicle id = "veh_92" type = "transport" route = "rou_41" depart = "92.000000" />
		<vehicle id = "veh_93" type = "passenger" route = "rou_87" depart = "93.000000" />
		<vehicle id = "veh_94" type = "emergency" route = "rou_193" depart = "94.000000" />
		<vehicle id = "veh_95" type = "passenger" route = "rou_7" depart = "95.000000" />
		<vehicle id = "veh_96" type = "passenger" route = "rou_19" depart = "96.000000" />
		<vehicle id = "veh_97" type = "bus" route = "rou_125" depart = "97.000000" />
		<vehicle id = "veh_98" type = "bus" route = "rou_81" depart = "98.000000" />
		<vehicle id = "veh_99" type = "emergency" route = "rou_77" depart = "99.000000" />
		<vehicle id = "veh_100" type = "bus" route = "rou_132" depart = "100.000000" />
		<vehicle id = "veh_101" type = "passenger" route = "rou_127" depart = "101.000000" />
		<vehicle id = "veh_102" type = "emergency" route = "rou_11" depart = "102.000000" />
		<vehicle id = "veh_103" type = "passenger" route = "rou_180" depart = "103.000000" />
		<vehicle id = "veh_104" type = "emergency" route = "rou_161" depart = "104.000000" />
		<vehicle id = "veh_105" type = "emergency" route = "rou_170" depart = "105.000000" />
		<vehicle id = "veh_106" type = "passenger" route = "rou_5" depart = "106.000000" />
		<vehicle id = "veh_107" type = "transport" route = "rou_161" depart = "107.000000" />
		<vehicle id = "veh_108" type = "bus" route = "rou_60" depart = "108.000000" />
		<vehicle id = "veh_109" type = "passenger" route = "rou_83" depart = "109.000000" />
		<vehicle id = "veh_110" type = "passenger" route = "rou_190" depart = "110.000000" />
		<vehicle id = "veh_111" type = "transport" route = "rou_99" depart = "111.000000" />
		<vehicle id = "veh_112" type = "passenger" route = "rou_110" depart = "112.000000" />
		<vehicle id = "veh_113" type = "passenger" route = "rou_125" depart = "113.000000" />
		<vehicle id = "veh_114" type = "emergency" route = "rou_182" depart = "114.000000" />
		<vehicle id = "veh_115" type = "passenger" route = "rou_76" depart = "115.000000" />
		<vehicle id = "veh_116" type = "emergency" route = "rou_68" depart = "116.000000" />
		<vehicle id = "veh_117" type = "emergency" route = "rou_162" depart = "117.000000" />
		<vehicle id = "veh_118" type = "transport" route = "rou_118" depart = "118.000000" />
		<vehicle id = "veh_119" type = "passenger" route = "rou_128" depart = "119.000000" />
		<vehicle id = "veh_120" type = "bus" route = "rou_93" depart = "120.000000" />
		<vehicle id = "veh_121" type = "emergency" route = "rou_88" depart = "121.000000" />
		<vehicle id = "veh_122" type = "passenger" route = "rou_26" depart = "122.000000" />
		<vehicle id = "veh_123" type = "bus" route = "rou_152" depart = "123.000000" />
		<vehicle id = "veh_124" type = "passenger" route = "rou_122" depart = "124.000000" />
		<vehicle id = "veh_125" type = "transport" route = "rou_170" depart = "125.000000" />
		<vehicle id = "veh_126" type = "emergency" route = "rou_71" depart = "126.000000" />
		<vehicle id = "veh_127" type = "bus" route = "rou_198" depart = "127.000000" />
		<vehicle id = "veh_128" type = "bus" route = "rou_114" depart = "128.000000" />
		<vehicle id = "veh_129" type = "passenger" route = "rou_16" depart = "129.000000" />
		<vehicle id = "veh_130" type = "bus" route = "rou_40" depart = "130.000000" />
		<vehicle id = "veh_131" type = "passenger" route = "rou_100" depart = "131.000000" />
		<vehicle id = "veh_132" type = "transport" route = "rou_120" depart = "132.000000" />
		<vehicle id = "veh_133" type = "bus" route = "rou_140" depart = "133.000000" />
		<vehicle id = "veh_134" type = "emergency" route = "rou_122" depart = "134.000000" />
		<vehicle id = "veh_135" type = "bus" route = "rou_163" depart = "135.000000" />
		<vehicle id = "veh_136" type = "bus" route = "rou_19" depart = "136.000000" />
		<vehicle id = "veh_137" type = "passenger" route = "rou_163" depart = "137.000000" />
		<vehicle id = "veh_138" type = "passenger" route = "rou_69" depart = "138.000000" />
		<vehicle id = "veh_139" type = "transport" route = "rou_127" depart = "139.000000" />
		<vehicle id = "veh_140" type = "bus" route = "rou_198" depart = "140.000000" />
		<vehicle id = "veh_141" type = "transport" route = "rou_99" depart = "141.000000" />
		<vehicle id = "veh_142" type = "transport" route = "rou_108" depart = "142.000000" />
		<vehicle id = "veh_143" type = "passenger" route = "rou_74" depart = "143.000000" />
		<vehicle id = "veh_144" type = "passenger" route = "rou_43" depart = "144.000000" />
		<vehicle id = "veh_145" type = "bus" route = "rou_83" depart = "145.000000" />
		<vehicle id = "veh_146" type = "transport" route = "rou_65" depart = "146.000000" />
		<vehicle id = "veh_147" type = "bus" route = "rou_32" depart = "147.000000" />
		<vehicle id = "veh_148" type = "transport" route = "rou_190" depart = "148.000000" />
		<vehicle id = "veh_149" type = "bus" route = "rou_15" depart = "149.000000" />
		<vehicle id = "veh_150" type = "emergency" route = "rou_18" depart = "150.000000" />
		<vehicle id = "veh_151" type = "transport" route = "rou_96" depart = "151.000000" />
		<vehicle id = "veh_152" type = "transport" route = "rou_131" depart = "152.000000" />
		<vehicle id = "veh_153" type = "bus" route = "rou_28" depart = "153.000000" />
		<vehicle id = "veh_154" type = "emergency" route = "rou_60" depart = "154.000000" />
		<vehicle id = "veh_155" type = "emergency" route = "rou_77" depart = "155.000000" />
		<vehicle id = "veh_156" type = "transport" route = "rou_145" depart = "156.000000" />
		<vehicle id = "veh_157" type = "transport" route = "rou_156" depart = "157.000000" />
		<vehicle id = "veh_158" type = "transport" route = "rou_127" depart = "158.000000" />
		<vehicle id = "veh_159" type = "transport" route = "rou_7" depart = "159.000000" />
		<vehicle id = "veh_160" type = "bus" route = "rou_66" depart = "160.000000" />
		<vehicle id = "veh_161" type = "bus" route = "rou_87" depart = "161.000000" />
		<vehicle id = "veh_162" type = "passenger" route = "rou_56" depart = "162.000000" />